@<TRIPOS>MOLECULE
*****
 43 45 0 0 0
SMALL
GASTEIGER

@<TRIPOS>ATOM
      1 C          -6.6973    1.7174    1.1937 C.3     1  UNL11       0.0125
      2 C          -7.2287    0.3401    0.8535 C.2     1  UNL11       0.2141
      3 O          -8.4269    0.0920    1.0896 O.2     1  UNL11      -0.2758
      4 N          -6.3676   -0.5972    0.2922 N.am    1  UNL11      -0.2857
      5 C          -4.9917   -0.3876    0.0103 C.ar    1  UNL11       0.0334
      6 C          -3.9496   -0.6362    0.8511 C.ar    1  UNL11      -0.0399
      7 C          -2.6064   -0.3926    0.4969 C.ar    1  UNL11      -0.0508
      8 C          -2.2858    0.1116   -0.7252 C.ar    1  UNL11       0.0006
      9 C          -0.9014    0.3908   -1.1618 C.ar    1  UNL11       0.0760
     10 C          -0.6688    0.9143   -2.4058 C.ar    1  UNL11      -0.0174
     11 C           0.6478    1.1772   -2.8145 C.ar    1  UNL11       0.0332
     12 N           1.6090    0.8956   -1.9499 N.ar    1  UNL11      -0.2226
     13 C           1.4165    0.3820   -0.7229 C.ar    1  UNL11       0.2200
     14 N           2.4319    0.0796    0.2029 N.pl3   1  UNL11      -0.2836
     15 C           3.8269    0.2459    0.0499 C.ar    1  UNL11       0.0343
     16 C           4.4608    0.1747   -1.1647 C.ar    1  UNL11      -0.0404
     17 C           5.8283    0.3422   -1.2789 C.ar    1  UNL11      -0.0593
     18 C           6.5729    0.5854   -0.1550 C.ar    1  UNL11      -0.0495
     19 C           5.9829    0.6677    1.1012 C.ar    1  UNL11       0.0382
     20 C           6.7641    0.9252    2.2991 C.2     1  UNL11       0.2416
     21 N           7.9601    1.6849    2.2569 N.am    1  UNL11      -0.3253
     22 O           6.3867    0.4724    3.4061 O.2     1  UNL11      -0.2704
     23 C           4.6301    0.4968    1.1743 C.ar    1  UNL11      -0.0284
     24 N           0.1252    0.1313   -0.3396 N.ar    1  UNL11      -0.2142
     25 C          -3.3379    0.3737   -1.6029 C.ar    1  UNL11      -0.0508
     26 C          -4.6382    0.1323   -1.2454 C.ar    1  UNL11      -0.0399
     27 H          -5.8255    1.9226    0.5257 H       1  UNL11       0.0323
     28 H          -7.4820    2.4505    0.9070 H       1  UNL11       0.0323
     29 H          -6.4151    1.7773    2.2560 H       1  UNL11       0.0323
     30 H          -6.8081   -1.5513    0.0640 H       1  UNL11       0.1548
     31 H          -4.1280   -1.0399    1.8333 H       1  UNL11       0.0636
     32 H          -1.8228   -0.6134    1.2156 H       1  UNL11       0.0625
     33 H          -1.4628    1.1450   -3.1156 H       1  UNL11       0.0654
     34 H           0.7885    1.5888   -3.8005 H       1  UNL11       0.0831
     35 H           2.1198   -0.3235    1.1336 H       1  UNL11       0.1550
     36 H           3.9368   -0.0137   -2.0909 H       1  UNL11       0.0636
     37 H           6.3403    0.2865   -2.2464 H       1  UNL11       0.0618
     38 H           7.6455    0.7202   -0.2182 H       1  UNL11       0.0625
     39 H           8.5816    1.5823    1.4280 H       1  UNL11       0.1453
     40 H           8.2102    2.3280    3.0339 H       1  UNL11       0.1453
     41 H           4.1262    0.5509    2.1203 H       1  UNL11       0.0644
     42 H          -3.0547    0.7756   -2.5709 H       1  UNL11       0.0625
     43 H          -5.4418    0.3475   -1.9540 H       1  UNL11       0.0636
@<TRIPOS>BOND
     1     1     2    1
     2     1    27    1
     3     1    28    1
     4     1    29    1
     5     2     3    2
     6     2     4   am
     7     4     5    1
     8     4    30    1
     9     5     6   ar
    10     6     7   ar
    11     6    31    1
    12     7     8   ar
    13     7    32    1
    14     8     9    1
    15     8    25   ar
    16     9    10   ar
    17    10    11   ar
    18    10    33    1
    19    11    12   ar
    20    11    34    1
    21    12    13   ar
    22    13    14    1
    23    13    24   ar
    24    14    15    1
    25    14    35    1
    26    15    16   ar
    27    16    17   ar
    28    16    36    1
    29    17    18   ar
    30    17    37    1
    31    18    19   ar
    32    18    38    1
    33    19    20    1
    34    19    23   ar
    35    20    21   am
    36    20    22    2
    37    21    39    1
    38    21    40    1
    39    23    15   ar
    40    23    41    1
    41    24     9   ar
    42    25    26   ar
    43    25    42    1
    44    26     5   ar
    45    26    43    1
@<TRIPOS>MOLECULE
*****
 43 45 0 0 0
SMALL
GASTEIGER

@<TRIPOS>ATOM
      1 C          -8.6702   -0.8421    0.9760 C.3     1  UNL11       0.0125
      2 C          -7.3961   -0.3102    0.3525 C.2     1  UNL11       0.2141
      3 O          -7.4794    0.6462   -0.4421 O.2     1  UNL11      -0.2758
      4 N          -6.1822   -0.9024    0.6851 N.am    1  UNL11      -0.2857
      5 C          -4.9113   -0.5147    0.1838 C.ar    1  UNL11       0.0334
      6 C          -4.6661    0.4928   -0.6991 C.ar    1  UNL11      -0.0399
      7 C          -3.3702    0.8111   -1.1555 C.ar    1  UNL11      -0.0508
      8 C          -2.2858    0.1116   -0.7252 C.ar    1  UNL11       0.0006
      9 C          -0.9014    0.3908   -1.1618 C.ar    1  UNL11       0.0760
     10 C          -0.6688    0.9143   -2.4058 C.ar    1  UNL11      -0.0174
     11 C           0.6478    1.1772   -2.8145 C.ar    1  UNL11       0.0332
     12 N           1.6090    0.8956   -1.9499 N.ar    1  UNL11      -0.2226
     13 C           1.4165    0.3820   -0.7229 C.ar    1  UNL11       0.2200
     14 N           2.4319    0.0796    0.2029 N.pl3   1  UNL11      -0.2836
     15 C           3.7643   -0.3091   -0.0628 C.ar    1  UNL11       0.0343
     16 C           4.1321   -1.0016   -1.1884 C.ar    1  UNL11      -0.0404
     17 C           5.4457   -1.3665   -1.4175 C.ar    1  UNL11      -0.0593
     18 C           6.4072   -1.0309   -0.5012 C.ar    1  UNL11      -0.0495
     19 C           6.0910   -0.3296    0.6569 C.ar    1  UNL11       0.0382
     20 C           7.1036    0.0310    1.6347 C.2     1  UNL11       0.2416
     21 N           6.7964    0.1483    3.0136 N.am    1  UNL11      -0.3253
     22 O           8.2834    0.2474    1.2685 O.2     1  UNL11      -0.2704
     23 C           4.7832    0.0134    0.8484 C.ar    1  UNL11      -0.0284
     24 N           0.1252    0.1313   -0.3396 N.ar    1  UNL11      -0.2142
     25 C          -2.5137   -0.9250    0.1800 C.ar    1  UNL11      -0.0508
     26 C          -3.7781   -1.2233    0.6149 C.ar    1  UNL11      -0.0399
     27 H          -8.4013   -1.3203    1.9493 H       1  UNL11       0.0323
     28 H          -9.3013    0.0367    1.2306 H       1  UNL11       0.0323
     29 H          -9.1696   -1.5537    0.3007 H       1  UNL11       0.0323
     30 H          -6.2417   -1.7187    1.3826 H       1  UNL11       0.1548
     31 H          -5.4763    1.0916   -1.0791 H       1  UNL11       0.0636
     32 H          -3.2448    1.6275   -1.8606 H       1  UNL11       0.0625
     33 H          -1.4628    1.1450   -3.1156 H       1  UNL11       0.0654
     34 H           0.7885    1.5888   -3.8005 H       1  UNL11       0.0831
     35 H           2.1731    0.1497    1.2297 H       1  UNL11       0.1550
     36 H           3.4274   -1.2988   -1.9520 H       1  UNL11       0.0636
     37 H           5.7456   -1.9198   -2.3148 H       1  UNL11       0.0618
     38 H           7.4430   -1.3052   -0.6576 H       1  UNL11       0.0625
     39 H           5.8704    0.5414    3.2816 H       1  UNL11       0.1453
     40 H           7.4784   -0.1503    3.7384 H       1  UNL11       0.1453
     41 H           4.4868    0.5552    1.7262 H       1  UNL11       0.0644
     42 H          -1.6317   -1.4671    0.5072 H       1  UNL11       0.0625
     43 H          -3.9262   -2.0411    1.3244 H       1  UNL11       0.0636
@<TRIPOS>BOND
     1     1     2    1
     2     1    27    1
     3     1    28    1
     4     1    29    1
     5     2     3    2
     6     2     4   am
     7     4     5    1
     8     4    30    1
     9     5     6   ar
    10     6     7   ar
    11     6    31    1
    12     7     8   ar
    13     7    32    1
    14     8     9    1
    15     8    25   ar
    16     9    10   ar
    17    10    11   ar
    18    10    33    1
    19    11    12   ar
    20    11    34    1
    21    12    13   ar
    22    13    14    1
    23    13    24   ar
    24    14    15    1
    25    14    35    1
    26    15    16   ar
    27    16    17   ar
    28    16    36    1
    29    17    18   ar
    30    17    37    1
    31    18    19   ar
    32    18    38    1
    33    19    20    1
    34    19    23   ar
    35    20    21   am
    36    20    22    2
    37    21    39    1
    38    21    40    1
    39    23    15   ar
    40    23    41    1
    41    24     9   ar
    42    25    26   ar
    43    25    42    1
    44    26     5   ar
    45    26    43    1
@<TRIPOS>MOLECULE
*****
 43 45 0 0 0
SMALL
GASTEIGER

@<TRIPOS>ATOM
      1 C          -8.1677   -2.2137    1.3127 C.3     1  UNL11       0.0125
      2 C          -6.8107   -2.0251    0.6664 C.2     1  UNL11       0.2141
      3 O          -6.3043   -2.9884    0.0590 O.2     1  UNL11      -0.2758
      4 N          -6.1776   -0.7908    0.7708 N.am    1  UNL11      -0.2857
      5 C          -4.9099   -0.4655    0.2197 C.ar    1  UNL11       0.0334
      6 C          -4.6781    0.0537   -1.0178 C.ar    1  UNL11      -0.0399
      7 C          -3.3830    0.3430   -1.4953 C.ar    1  UNL11      -0.0508
      8 C          -2.2858    0.1116   -0.7252 C.ar    1  UNL11       0.0006
      9 C          -0.9014    0.3908   -1.1618 C.ar    1  UNL11       0.0760
     10 C          -0.6688    0.9143   -2.4058 C.ar    1  UNL11      -0.0174
     11 C           0.6478    1.1772   -2.8145 C.ar    1  UNL11       0.0332
     12 N           1.6090    0.8956   -1.9499 N.ar    1  UNL11      -0.2226
     13 C           1.4165    0.3820   -0.7229 C.ar    1  UNL11       0.2200
     14 N           2.4319    0.0796    0.2029 N.pl3   1  UNL11      -0.2836
     15 C           3.6887    0.7083    0.3526 C.ar    1  UNL11       0.0343
     16 C           4.3418    0.7996    1.5555 C.ar    1  UNL11      -0.0404
     17 C           5.5712    1.4220    1.6668 C.ar    1  UNL11      -0.0593
     18 C           6.1556    1.9622    0.5518 C.ar    1  UNL11      -0.0495
     19 C           5.5387    1.8985   -0.6926 C.ar    1  UNL11       0.0382
     20 C           6.1504    2.4685   -1.8810 C.2     1  UNL11       0.2416
     21 N           7.4082    3.1201   -1.8293 N.am    1  UNL11      -0.3253
     22 O           5.5664    2.3916   -2.9882 O.2     1  UNL11      -0.2704
     23 C           4.3253    1.2761   -0.7630 C.ar    1  UNL11      -0.0284
     24 N           0.1252    0.1313   -0.3396 N.ar    1  UNL11      -0.2142
     25 C          -2.4999   -0.4200    0.5465 C.ar    1  UNL11      -0.0508
     26 C          -3.7637   -0.6963    0.9976 C.ar    1  UNL11      -0.0399
     27 H          -8.6578   -1.2117    1.3785 H       1  UNL11       0.0323
     28 H          -8.7855   -2.8110    0.6077 H       1  UNL11       0.0323
     29 H          -8.0680   -2.6804    2.3046 H       1  UNL11       0.0323
     30 H          -6.7172   -0.0395    1.3193 H       1  UNL11       0.1548
     31 H          -5.4996    0.2665   -1.6806 H       1  UNL11       0.0636
     32 H          -3.2686    0.7561   -2.4931 H       1  UNL11       0.0625
     33 H          -1.4628    1.1450   -3.1156 H       1  UNL11       0.0654
     34 H           0.7885    1.5888   -3.8005 H       1  UNL11       0.0831
     35 H           2.2377   -0.7179    0.8755 H       1  UNL11       0.1550
     36 H           3.9402    0.3965    2.4743 H       1  UNL11       0.0636
     37 H           6.0978    1.4981    2.6250 H       1  UNL11       0.0618
     38 H           7.1180    2.4549    0.6128 H       1  UNL11       0.0625
     39 H           7.6339    3.6925   -0.9894 H       1  UNL11       0.1453
     40 H           8.0878    3.0289   -2.6101 H       1  UNL11       0.1453
     41 H           3.8075    1.2002   -1.7001 H       1  UNL11       0.0644
     42 H          -1.6079   -0.5951    1.1402 H       1  UNL11       0.0625
     43 H          -3.9008   -1.1125    1.9986 H       1  UNL11       0.0636
@<TRIPOS>BOND
     1     1     2    1
     2     1    27    1
     3     1    28    1
     4     1    29    1
     5     2     3    2
     6     2     4   am
     7     4     5    1
     8     4    30    1
     9     5     6   ar
    10     6     7   ar
    11     6    31    1
    12     7     8   ar
    13     7    32    1
    14     8     9    1
    15     8    25   ar
    16     9    10   ar
    17    10    11   ar
    18    10    33    1
    19    11    12   ar
    20    11    34    1
    21    12    13   ar
    22    13    14    1
    23    13    24   ar
    24    14    15    1
    25    14    35    1
    26    15    16   ar
    27    16    17   ar
    28    16    36    1
    29    17    18   ar
    30    17    37    1
    31    18    19   ar
    32    18    38    1
    33    19    20    1
    34    19    23   ar
    35    20    21   am
    36    20    22    2
    37    21    39    1
    38    21    40    1
    39    23    15   ar
    40    23    41    1
    41    24     9   ar
    42    25    26   ar
    43    25    42    1
    44    26     5   ar
    45    26    43    1
@<TRIPOS>MOLECULE
*****
 43 45 0 0 0
SMALL
GASTEIGER

@<TRIPOS>ATOM
      1 C          -5.8792   -1.7506    2.4870 C.3     1  UNL11       0.0125
      2 C          -6.8558   -1.1370    1.5049 C.2     1  UNL11       0.2141
      3 O          -8.0756   -1.2419    1.7378 O.2     1  UNL11      -0.2758
      4 N          -6.3629   -0.4805    0.3819 N.am    1  UNL11      -0.2857
      5 C          -4.9902   -0.3361    0.0479 C.ar    1  UNL11       0.0334
      6 C          -3.9621   -1.0957    0.5176 C.ar    1  UNL11      -0.0399
      7 C          -2.6197   -0.8825    0.1413 C.ar    1  UNL11      -0.0508
      8 C          -2.2858    0.1116   -0.7252 C.ar    1  UNL11       0.0006
      9 C          -0.9014    0.3908   -1.1618 C.ar    1  UNL11       0.0760
     10 C          -0.6688    0.9143   -2.4058 C.ar    1  UNL11      -0.0174
     11 C           0.6478    1.1772   -2.8145 C.ar    1  UNL11       0.0332
     12 N           1.6090    0.8956   -1.9499 N.ar    1  UNL11      -0.2226
     13 C           1.4165    0.3820   -0.7229 C.ar    1  UNL11       0.2200
     14 N           2.4319    0.0796    0.2029 N.pl3   1  UNL11      -0.2836
     15 C           3.7643   -0.3091   -0.0628 C.ar    1  UNL11       0.0343
     16 C           4.8109   -0.0162    0.7745 C.ar    1  UNL11      -0.0404
     17 C           6.1033   -0.4119    0.4841 C.ar    1  UNL11      -0.0593
     18 C           6.3502   -1.1135   -0.6663 C.ar    1  UNL11      -0.0495
     19 C           5.3276   -1.4376   -1.5508 C.ar    1  UNL11       0.0382
     20 C           5.5793   -2.1814   -2.7734 C.2     1  UNL11       0.2416
     21 N           4.7863   -1.9944   -3.9334 N.am    1  UNL11      -0.3253
     22 O           6.5166   -3.0133   -2.8224 O.2     1  UNL11      -0.2704
     23 C           4.0644   -1.0298   -1.2301 C.ar    1  UNL11      -0.0284
     24 N           0.1252    0.1313   -0.3396 N.ar    1  UNL11      -0.2142
     25 C          -3.3234    0.9022   -1.2192 C.ar    1  UNL11      -0.0508
     26 C          -4.6232    0.6838   -0.8450 C.ar    1  UNL11      -0.0399
     27 H          -4.9153   -1.1913    2.4060 H       1  UNL11       0.0323
     28 H          -6.2683   -1.5438    3.5074 H       1  UNL11       0.0323
     29 H          -5.7417   -2.8238    2.2844 H       1  UNL11       0.0323
     30 H          -7.1064   -0.0577   -0.2699 H       1  UNL11       0.1548
     31 H          -4.1523   -1.9033    1.2039 H       1  UNL11       0.0636
     32 H          -1.8476   -1.5253    0.5537 H       1  UNL11       0.0625
     33 H          -1.4628    1.1450   -3.1156 H       1  UNL11       0.0654
     34 H           0.7885    1.5888   -3.8005 H       1  UNL11       0.0831
     35 H           2.1731    0.1497    1.2297 H       1  UNL11       0.1550
     36 H           4.6894    0.5329    1.6972 H       1  UNL11       0.0636
     37 H           6.9434   -0.1810    1.1490 H       1  UNL11       0.0618
     38 H           7.3537   -1.4347   -0.9162 H       1  UNL11       0.0625
     39 H           3.7669   -1.8209   -3.8122 H       1  UNL11       0.1453
     40 H           5.2117   -2.0297   -4.8807 H       1  UNL11       0.1453
     41 H           3.2400   -1.2547   -1.8794 H       1  UNL11       0.0644
     42 H          -3.0298    1.6880   -1.9085 H       1  UNL11       0.0625
     43 H          -5.4152    1.3193   -1.2484 H       1  UNL11       0.0636
@<TRIPOS>BOND
     1     1     2    1
     2     1    27    1
     3     1    28    1
     4     1    29    1
     5     2     3    2
     6     2     4   am
     7     4     5    1
     8     4    30    1
     9     5     6   ar
    10     6     7   ar
    11     6    31    1
    12     7     8   ar
    13     7    32    1
    14     8     9    1
    15     8    25   ar
    16     9    10   ar
    17    10    11   ar
    18    10    33    1
    19    11    12   ar
    20    11    34    1
    21    12    13   ar
    22    13    14    1
    23    13    24   ar
    24    14    15    1
    25    14    35    1
    26    15    16   ar
    27    16    17   ar
    28    16    36    1
    29    17    18   ar
    30    17    37    1
    31    18    19   ar
    32    18    38    1
    33    19    20    1
    34    19    23   ar
    35    20    21   am
    36    20    22    2
    37    21    39    1
    38    21    40    1
    39    23    15   ar
    40    23    41    1
    41    24     9   ar
    42    25    26   ar
    43    25    42    1
    44    26     5   ar
    45    26    43    1
@<TRIPOS>MOLECULE
*****
 43 45 0 0 0
SMALL
GASTEIGER

@<TRIPOS>ATOM
      1 C          -7.2592    1.2793    0.0858 C.3     1  UNL11       0.0125
      2 C          -7.3272   -0.1125    0.6802 C.2     1  UNL11       0.2141
      3 O          -8.4137   -0.5051    1.1477 O.2     1  UNL11      -0.2758
      4 N          -6.1822   -0.9024    0.6851 N.am    1  UNL11      -0.2857
      5 C          -4.9113   -0.5147    0.1838 C.ar    1  UNL11       0.0334
      6 C          -4.6661    0.4928   -0.6991 C.ar    1  UNL11      -0.0399
      7 C          -3.3702    0.8111   -1.1555 C.ar    1  UNL11      -0.0508
      8 C          -2.2858    0.1116   -0.7252 C.ar    1  UNL11       0.0006
      9 C          -0.9014    0.3908   -1.1618 C.ar    1  UNL11       0.0760
     10 C          -0.6688    0.9143   -2.4058 C.ar    1  UNL11      -0.0174
     11 C           0.6478    1.1772   -2.8145 C.ar    1  UNL11       0.0332
     12 N           1.6090    0.8956   -1.9499 N.ar    1  UNL11      -0.2226
     13 C           1.4165    0.3820   -0.7229 C.ar    1  UNL11       0.2200
     14 N           2.4319    0.0796    0.2029 N.pl3   1  UNL11      -0.2836
     15 C           2.3596    0.1073    1.6139 C.ar    1  UNL11       0.0343
     16 C           1.5293    0.9531    2.3048 C.ar    1  UNL11      -0.0404
     17 C           1.4833    0.9542    3.6865 C.ar    1  UNL11      -0.0593
     18 C           2.2844    0.0918    4.3874 C.ar    1  UNL11      -0.0495
     19 C           3.1447   -0.7869    3.7389 C.ar    1  UNL11       0.0382
     20 C           3.9982   -1.7054    4.4734 C.2     1  UNL11       0.2416
     21 N           3.6217   -2.2170    5.7407 N.am    1  UNL11      -0.3253
     22 O           5.0981   -2.0654    3.9904 O.2     1  UNL11      -0.2704
     23 C           3.1624   -0.7590    2.3738 C.ar    1  UNL11      -0.0284
     24 N           0.1252    0.1313   -0.3396 N.ar    1  UNL11      -0.2142
     25 C          -2.5137   -0.9250    0.1800 C.ar    1  UNL11      -0.0508
     26 C          -3.7781   -1.2233    0.6149 C.ar    1  UNL11      -0.0399
     27 H          -6.4335    1.2901   -0.6668 H       1  UNL11       0.0323
     28 H          -8.1983    1.4360   -0.4877 H       1  UNL11       0.0323
     29 H          -7.0997    2.0336    0.8714 H       1  UNL11       0.0323
     30 H          -6.2988   -1.8830    1.1108 H       1  UNL11       0.1548
     31 H          -5.4763    1.0916   -1.0791 H       1  UNL11       0.0636
     32 H          -3.2448    1.6275   -1.8606 H       1  UNL11       0.0625
     33 H          -1.4628    1.1450   -3.1156 H       1  UNL11       0.0654
     34 H           0.7885    1.5888   -3.8005 H       1  UNL11       0.0831
     35 H           3.3712   -0.2054   -0.2003 H       1  UNL11       0.1550
     36 H           0.8714    1.6584    1.8174 H       1  UNL11       0.0636
     37 H           0.8221    1.6275    4.2439 H       1  UNL11       0.0618
     38 H           2.2667    0.0735    5.4700 H       1  UNL11       0.0625
     39 H           3.1090   -1.5895    6.3942 H       1  UNL11       0.1453
     40 H           3.8519   -3.1938    6.0104 H       1  UNL11       0.1453
     41 H           3.8089   -1.4172    1.8255 H       1  UNL11       0.0644
     42 H          -1.6317   -1.4671    0.5072 H       1  UNL11       0.0625
     43 H          -3.9262   -2.0411    1.3244 H       1  UNL11       0.0636
@<TRIPOS>BOND
     1     1     2    1
     2     1    27    1
     3     1    28    1
     4     1    29    1
     5     2     3    2
     6     2     4   am
     7     4     5    1
     8     4    30    1
     9     5     6   ar
    10     6     7   ar
    11     6    31    1
    12     7     8   ar
    13     7    32    1
    14     8     9    1
    15     8    25   ar
    16     9    10   ar
    17    10    11   ar
    18    10    33    1
    19    11    12   ar
    20    11    34    1
    21    12    13   ar
    22    13    14    1
    23    13    24   ar
    24    14    15    1
    25    14    35    1
    26    15    16   ar
    27    16    17   ar
    28    16    36    1
    29    17    18   ar
    30    17    37    1
    31    18    19   ar
    32    18    38    1
    33    19    20    1
    34    19    23   ar
    35    20    21   am
    36    20    22    2
    37    21    39    1
    38    21    40    1
    39    23    15   ar
    40    23    41    1
    41    24     9   ar
    42    25    26   ar
    43    25    42    1
    44    26     5   ar
    45    26    43    1
@<TRIPOS>MOLECULE
*****
 43 45 0 0 0
SMALL
GASTEIGER

@<TRIPOS>ATOM
      1 C          -5.9453   -2.4033    1.9334 C.3     1  UNL11       0.0125
      2 C          -6.8864   -1.4310    1.2522 C.2     1  UNL11       0.2141
      3 O          -8.1055   -1.5163    1.4963 O.2     1  UNL11      -0.2758
      4 N          -6.3629   -0.4805    0.3819 N.am    1  UNL11      -0.2857
      5 C          -4.9902   -0.3361    0.0479 C.ar    1  UNL11       0.0334
      6 C          -3.9621   -1.0957    0.5176 C.ar    1  UNL11      -0.0399
      7 C          -2.6197   -0.8825    0.1413 C.ar    1  UNL11      -0.0508
      8 C          -2.2858    0.1116   -0.7252 C.ar    1  UNL11       0.0006
      9 C          -0.9014    0.3908   -1.1618 C.ar    1  UNL11       0.0760
     10 C          -0.6688    0.9143   -2.4058 C.ar    1  UNL11      -0.0174
     11 C           0.6478    1.1772   -2.8145 C.ar    1  UNL11       0.0332
     12 N           1.6090    0.8956   -1.9499 N.ar    1  UNL11      -0.2226
     13 C           1.4165    0.3820   -0.7229 C.ar    1  UNL11       0.2200
     14 N           2.4319    0.0796    0.2029 N.pl3   1  UNL11      -0.2836
     15 C           3.8269    0.2459    0.0499 C.ar    1  UNL11       0.0343
     16 C           4.4608    0.1747   -1.1647 C.ar    1  UNL11      -0.0404
     17 C           5.8283    0.3422   -1.2789 C.ar    1  UNL11      -0.0593
     18 C           6.5729    0.5854   -0.1550 C.ar    1  UNL11      -0.0495
     19 C           5.9829    0.6677    1.1012 C.ar    1  UNL11       0.0382
     20 C           6.7641    0.9252    2.2991 C.2     1  UNL11       0.2416
     21 N           6.3748    0.4163    3.5635 N.am    1  UNL11      -0.3253
     22 O           7.8112    1.6121    2.2320 O.2     1  UNL11      -0.2704
     23 C           4.6301    0.4968    1.1743 C.ar    1  UNL11      -0.0284
     24 N           0.1252    0.1313   -0.3396 N.ar    1  UNL11      -0.2142
     25 C          -3.3234    0.9022   -1.2192 C.ar    1  UNL11      -0.0508
     26 C          -4.6232    0.6838   -0.8450 C.ar    1  UNL11      -0.0399
     27 H          -4.9391   -1.9211    1.9929 H       1  UNL11       0.0323
     28 H          -6.2939   -2.5148    2.9829 H       1  UNL11       0.0323
     29 H          -5.9042   -3.3575    1.3862 H       1  UNL11       0.0323
     30 H          -7.0811    0.1865   -0.0606 H       1  UNL11       0.1548
     31 H          -4.1523   -1.9033    1.2039 H       1  UNL11       0.0636
     32 H          -1.8476   -1.5253    0.5537 H       1  UNL11       0.0625
     33 H          -1.4628    1.1450   -3.1156 H       1  UNL11       0.0654
     34 H           0.7885    1.5888   -3.8005 H       1  UNL11       0.0831
     35 H           2.1198   -0.3235    1.1336 H       1  UNL11       0.1550
     36 H           3.9368   -0.0137   -2.0909 H       1  UNL11       0.0636
     37 H           6.3403    0.2865   -2.2464 H       1  UNL11       0.0618
     38 H           7.6455    0.7202   -0.2182 H       1  UNL11       0.0625
     39 H           5.3591    0.3770    3.7887 H       1  UNL11       0.1453
     40 H           7.0853    0.0909    4.2484 H       1  UNL11       0.1453
     41 H           4.1262    0.5509    2.1203 H       1  UNL11       0.0644
     42 H          -3.0298    1.6880   -1.9085 H       1  UNL11       0.0625
     43 H          -5.4152    1.3193   -1.2484 H       1  UNL11       0.0636
@<TRIPOS>BOND
     1     1     2    1
     2     1    27    1
     3     1    28    1
     4     1    29    1
     5     2     3    2
     6     2     4   am
     7     4     5    1
     8     4    30    1
     9     5     6   ar
    10     6     7   ar
    11     6    31    1
    12     7     8   ar
    13     7    32    1
    14     8     9    1
    15     8    25   ar
    16     9    10   ar
    17    10    11   ar
    18    10    33    1
    19    11    12   ar
    20    11    34    1
    21    12    13   ar
    22    13    14    1
    23    13    24   ar
    24    14    15    1
    25    14    35    1
    26    15    16   ar
    27    16    17   ar
    28    16    36    1
    29    17    18   ar
    30    17    37    1
    31    18    19   ar
    32    18    38    1
    33    19    20    1
    34    19    23   ar
    35    20    21   am
    36    20    22    2
    37    21    39    1
    38    21    40    1
    39    23    15   ar
    40    23    41    1
    41    24     9   ar
    42    25    26   ar
    43    25    42    1
    44    26     5   ar
    45    26    43    1
@<TRIPOS>MOLECULE
*****
 43 45 0 0 0
SMALL
GASTEIGER

@<TRIPOS>ATOM
      1 C          -7.4310    0.1872   -1.1943 C.3     1  UNL11       0.0125
      2 C          -7.4072   -0.6036    0.0976 C.2     1  UNL11       0.2141
      3 O          -8.4929   -0.9619    0.5934 O.2     1  UNL11      -0.2758
      4 N          -6.1822   -0.9024    0.6851 N.am    1  UNL11      -0.2857
      5 C          -4.9113   -0.5147    0.1838 C.ar    1  UNL11       0.0334
      6 C          -4.6661    0.4928   -0.6991 C.ar    1  UNL11      -0.0399
      7 C          -3.3702    0.8111   -1.1555 C.ar    1  UNL11      -0.0508
      8 C          -2.2858    0.1116   -0.7252 C.ar    1  UNL11       0.0006
      9 C          -0.9014    0.3908   -1.1618 C.ar    1  UNL11       0.0760
     10 C          -0.6688    0.9143   -2.4058 C.ar    1  UNL11      -0.0174
     11 C           0.6478    1.1772   -2.8145 C.ar    1  UNL11       0.0332
     12 N           1.6090    0.8956   -1.9499 N.ar    1  UNL11      -0.2226
     13 C           1.4165    0.3820   -0.7229 C.ar    1  UNL11       0.2200
     14 N           2.4319    0.0796    0.2029 N.pl3   1  UNL11      -0.2836
     15 C           2.4369   -0.9320    1.1897 C.ar    1  UNL11       0.0343
     16 C           3.5822   -1.5523    1.6203 C.ar    1  UNL11      -0.0404
     17 C           3.5514   -2.5390    2.5882 C.ar    1  UNL11      -0.0593
     18 C           2.3507   -2.9098    3.1335 C.ar    1  UNL11      -0.0495
     19 C           1.1591   -2.3148    2.7346 C.ar    1  UNL11       0.0382
     20 C          -0.1193   -2.7012    3.3070 C.2     1  UNL11       0.2416
     21 N          -1.3215   -2.6242    2.5597 N.am    1  UNL11      -0.3253
     22 O          -0.1803   -3.1153    4.4892 O.2     1  UNL11      -0.2704
     23 C           1.2295   -1.3443    1.7765 C.ar    1  UNL11      -0.0284
     24 N           0.1252    0.1313   -0.3396 N.ar    1  UNL11      -0.2142
     25 C          -2.5137   -0.9250    0.1800 C.ar    1  UNL11      -0.0508
     26 C          -3.7781   -1.2233    0.6149 C.ar    1  UNL11      -0.0399
     27 H          -6.4595    0.0154   -1.7188 H       1  UNL11       0.0323
     28 H          -8.2126   -0.2667   -1.8411 H       1  UNL11       0.0323
     29 H          -7.5993    1.2568   -0.9961 H       1  UNL11       0.0323
     30 H          -6.2327   -1.4750    1.5939 H       1  UNL11       0.1548
     31 H          -5.4763    1.0916   -1.0791 H       1  UNL11       0.0636
     32 H          -3.2448    1.6275   -1.8606 H       1  UNL11       0.0625
     33 H          -1.4628    1.1450   -3.1156 H       1  UNL11       0.0654
     34 H           0.7885    1.5888   -3.8005 H       1  UNL11       0.0831
     35 H           3.3053    0.6810    0.1615 H       1  UNL11       0.1550
     36 H           4.5623   -1.3103    1.2346 H       1  UNL11       0.0636
     37 H           4.4630   -3.0381    2.9363 H       1  UNL11       0.0618
     38 H           2.3001   -3.6800    3.8931 H       1  UNL11       0.0625
     39 H          -1.4408   -1.8309    1.8963 H       1  UNL11       0.1453
     40 H          -2.0649   -3.3416    2.6716 H       1  UNL11       0.1453
     41 H           0.3384   -0.8539    1.4338 H       1  UNL11       0.0644
     42 H          -1.6317   -1.4671    0.5072 H       1  UNL11       0.0625
     43 H          -3.9262   -2.0411    1.3244 H       1  UNL11       0.0636
@<TRIPOS>BOND
     1     1     2    1
     2     1    27    1
     3     1    28    1
     4     1    29    1
     5     2     3    2
     6     2     4   am
     7     4     5    1
     8     4    30    1
     9     5     6   ar
    10     6     7   ar
    11     6    31    1
    12     7     8   ar
    13     7    32    1
    14     8     9    1
    15     8    25   ar
    16     9    10   ar
    17    10    11   ar
    18    10    33    1
    19    11    12   ar
    20    11    34    1
    21    12    13   ar
    22    13    14    1
    23    13    24   ar
    24    14    15    1
    25    14    35    1
    26    15    16   ar
    27    16    17   ar
    28    16    36    1
    29    17    18   ar
    30    17    37    1
    31    18    19   ar
    32    18    38    1
    33    19    20    1
    34    19    23   ar
    35    20    21   am
    36    20    22    2
    37    21    39    1
    38    21    40    1
    39    23    15   ar
    40    23    41    1
    41    24     9   ar
    42    25    26   ar
    43    25    42    1
    44    26     5   ar
    45    26    43    1
@<TRIPOS>MOLECULE
*****
 43 45 0 0 0
SMALL
GASTEIGER

@<TRIPOS>ATOM
      1 C          -5.5591   -0.4386    3.0674 C.3     1  UNL11       0.0125
      2 C          -6.5565   -0.9003    2.0248 C.2     1  UNL11       0.2141
      3 O          -7.6858   -1.2650    2.4053 O.2     1  UNL11      -0.2758
      4 N          -6.1822   -0.9024    0.6851 N.am    1  UNL11      -0.2857
      5 C          -4.9113   -0.5147    0.1838 C.ar    1  UNL11       0.0334
      6 C          -4.6661    0.4928   -0.6991 C.ar    1  UNL11      -0.0399
      7 C          -3.3702    0.8111   -1.1555 C.ar    1  UNL11      -0.0508
      8 C          -2.2858    0.1116   -0.7252 C.ar    1  UNL11       0.0006
      9 C          -0.9014    0.3908   -1.1618 C.ar    1  UNL11       0.0760
     10 C          -0.6688    0.9143   -2.4058 C.ar    1  UNL11      -0.0174
     11 C           0.6478    1.1772   -2.8145 C.ar    1  UNL11       0.0332
     12 N           1.6090    0.8956   -1.9499 N.ar    1  UNL11      -0.2226
     13 C           1.4165    0.3820   -0.7229 C.ar    1  UNL11       0.2200
     14 N           2.4319    0.0796    0.2029 N.pl3   1  UNL11      -0.2836
     15 C           3.8269    0.2459    0.0499 C.ar    1  UNL11       0.0343
     16 C           4.7492   -0.5653    0.6610 C.ar    1  UNL11      -0.0404
     17 C           6.1077   -0.3746    0.4897 C.ar    1  UNL11      -0.0593
     18 C           6.5486    0.6477   -0.3084 C.ar    1  UNL11      -0.0495
     19 C           5.6585    1.5001   -0.9520 C.ar    1  UNL11       0.0382
     20 C           6.1164    2.5872   -1.8005 C.2     1  UNL11       0.2416
     21 N           5.3695    3.7835   -1.9430 N.am    1  UNL11      -0.3253
     22 O           7.1962    2.4825   -2.4297 O.2     1  UNL11      -0.2704
     23 C           4.3246    1.2805   -0.7588 C.ar    1  UNL11      -0.0284
     24 N           0.1252    0.1313   -0.3396 N.ar    1  UNL11      -0.2142
     25 C          -2.5137   -0.9250    0.1800 C.ar    1  UNL11      -0.0508
     26 C          -3.7781   -1.2233    0.6149 C.ar    1  UNL11      -0.0399
     27 H          -4.8423    0.2594    2.5700 H       1  UNL11       0.0323
     28 H          -6.1191    0.1735    3.8070 H       1  UNL11       0.0323
     29 H          -5.0391   -1.2969    3.5196 H       1  UNL11       0.0323
     30 H          -6.9382   -1.2305   -0.0056 H       1  UNL11       0.1548
     31 H          -5.4763    1.0916   -1.0791 H       1  UNL11       0.0636
     32 H          -3.2448    1.6275   -1.8606 H       1  UNL11       0.0625
     33 H          -1.4628    1.1450   -3.1156 H       1  UNL11       0.0654
     34 H           0.7885    1.5888   -3.8005 H       1  UNL11       0.0831
     35 H           2.1198   -0.3235    1.1336 H       1  UNL11       0.1550
     36 H           4.4730   -1.3895    1.3030 H       1  UNL11       0.0636
     37 H           6.8493   -1.0193    0.9752 H       1  UNL11       0.0618
     38 H           7.6075    0.8178   -0.4585 H       1  UNL11       0.0625
     39 H           4.3306    3.7184   -1.9579 H       1  UNL11       0.1453
     40 H           5.8470    4.7022   -2.0305 H       1  UNL11       0.1453
     41 H           3.5964    1.9103   -1.2330 H       1  UNL11       0.0644
     42 H          -1.6317   -1.4671    0.5072 H       1  UNL11       0.0625
     43 H          -3.9262   -2.0411    1.3244 H       1  UNL11       0.0636
@<TRIPOS>BOND
     1     1     2    1
     2     1    27    1
     3     1    28    1
     4     1    29    1
     5     2     3    2
     6     2     4   am
     7     4     5    1
     8     4    30    1
     9     5     6   ar
    10     6     7   ar
    11     6    31    1
    12     7     8   ar
    13     7    32    1
    14     8     9    1
    15     8    25   ar
    16     9    10   ar
    17    10    11   ar
    18    10    33    1
    19    11    12   ar
    20    11    34    1
    21    12    13   ar
    22    13    14    1
    23    13    24   ar
    24    14    15    1
    25    14    35    1
    26    15    16   ar
    27    16    17   ar
    28    16    36    1
    29    17    18   ar
    30    17    37    1
    31    18    19   ar
    32    18    38    1
    33    19    20    1
    34    19    23   ar
    35    20    21   am
    36    20    22    2
    37    21    39    1
    38    21    40    1
    39    23    15   ar
    40    23    41    1
    41    24     9   ar
    42    25    26   ar
    43    25    42    1
    44    26     5   ar
    45    26    43    1
@<TRIPOS>MOLECULE
*****
 43 45 0 0 0
SMALL
GASTEIGER

@<TRIPOS>ATOM
      1 C          -6.6590    1.3538    1.6653 C.3     1  UNL11       0.0125
      2 C          -7.0539   -0.0836    1.3954 C.2     1  UNL11       0.2141
      3 O          -8.1536   -0.4862    1.8216 O.2     1  UNL11      -0.2758
      4 N          -6.1822   -0.9024    0.6851 N.am    1  UNL11      -0.2857
      5 C          -4.9113   -0.5147    0.1838 C.ar    1  UNL11       0.0334
      6 C          -4.6661    0.4928   -0.6991 C.ar    1  UNL11      -0.0399
      7 C          -3.3702    0.8111   -1.1555 C.ar    1  UNL11      -0.0508
      8 C          -2.2858    0.1116   -0.7252 C.ar    1  UNL11       0.0006
      9 C          -0.9014    0.3908   -1.1618 C.ar    1  UNL11       0.0760
     10 C          -0.6688    0.9143   -2.4058 C.ar    1  UNL11      -0.0174
     11 C           0.6478    1.1772   -2.8145 C.ar    1  UNL11       0.0332
     12 N           1.6090    0.8956   -1.9499 N.ar    1  UNL11      -0.2226
     13 C           1.4165    0.3820   -0.7229 C.ar    1  UNL11       0.2200
     14 N           2.4319    0.0796    0.2029 N.pl3   1  UNL11      -0.2836
     15 C           3.6887    0.7083    0.3526 C.ar    1  UNL11       0.0343
     16 C           4.8066    0.0504    0.7991 C.ar    1  UNL11      -0.0404
     17 C           6.0215    0.6962    0.9340 C.ar    1  UNL11      -0.0593
     18 C           6.1165    2.0251    0.6154 C.ar    1  UNL11      -0.0495
     19 C           5.0159    2.7411    0.1582 C.ar    1  UNL11       0.0382
     20 C           5.1066    4.1508   -0.1823 C.2     1  UNL11       0.2416
     21 N           6.3241    4.8669   -0.0631 N.am    1  UNL11      -0.3253
     22 O           4.0937    4.7655   -0.5933 O.2     1  UNL11      -0.2704
     23 C           3.8331    2.0693    0.0380 C.ar    1  UNL11      -0.0284
     24 N           0.1252    0.1313   -0.3396 N.ar    1  UNL11      -0.2142
     25 C          -2.5137   -0.9250    0.1800 C.ar    1  UNL11      -0.0508
     26 C          -3.7781   -1.2233    0.6149 C.ar    1  UNL11      -0.0399
     27 H          -5.9442    1.6683    0.8662 H       1  UNL11       0.0323
     28 H          -7.5695    1.9752    1.5235 H       1  UNL11       0.0323
     29 H          -6.2153    1.4568    2.6674 H       1  UNL11       0.0323
     30 H          -6.5254   -1.9076    0.5174 H       1  UNL11       0.1548
     31 H          -5.4763    1.0916   -1.0791 H       1  UNL11       0.0636
     32 H          -3.2448    1.6275   -1.8606 H       1  UNL11       0.0625
     33 H          -1.4628    1.1450   -3.1156 H       1  UNL11       0.0654
     34 H           0.7885    1.5888   -3.8005 H       1  UNL11       0.0831
     35 H           2.2377   -0.7179    0.8755 H       1  UNL11       0.1550
     36 H           4.8044   -0.9963    1.0680 H       1  UNL11       0.0636
     37 H           6.9181    0.1760    1.2902 H       1  UNL11       0.0618
     38 H           7.0568    2.5535    0.7125 H       1  UNL11       0.0625
     39 H           6.9546    4.6401    0.7337 H       1  UNL11       0.1453
     40 H           6.5806    5.5999   -0.7535 H       1  UNL11       0.1453
     41 H           2.9537    2.5763   -0.3106 H       1  UNL11       0.0644
     42 H          -1.6317   -1.4671    0.5072 H       1  UNL11       0.0625
     43 H          -3.9262   -2.0411    1.3244 H       1  UNL11       0.0636
@<TRIPOS>BOND
     1     1     2    1
     2     1    27    1
     3     1    28    1
     4     1    29    1
     5     2     3    2
     6     2     4   am
     7     4     5    1
     8     4    30    1
     9     5     6   ar
    10     6     7   ar
    11     6    31    1
    12     7     8   ar
    13     7    32    1
    14     8     9    1
    15     8    25   ar
    16     9    10   ar
    17    10    11   ar
    18    10    33    1
    19    11    12   ar
    20    11    34    1
    21    12    13   ar
    22    13    14    1
    23    13    24   ar
    24    14    15    1
    25    14    35    1
    26    15    16   ar
    27    16    17   ar
    28    16    36    1
    29    17    18   ar
    30    17    37    1
    31    18    19   ar
    32    18    38    1
    33    19    20    1
    34    19    23   ar
    35    20    21   am
    36    20    22    2
    37    21    39    1
    38    21    40    1
    39    23    15   ar
    40    23    41    1
    41    24     9   ar
    42    25    26   ar
    43    25    42    1
    44    26     5   ar
    45    26    43    1
@<TRIPOS>MOLECULE
*****
 43 45 0 0 0
SMALL
GASTEIGER

@<TRIPOS>ATOM
      1 C          -5.3686   -2.5202    2.2454 C.3     1  UNL11       0.0125
      2 C          -6.4868   -1.6323    1.7393 C.2     1  UNL11       0.2141
      3 O          -7.6350   -1.8099    2.1902 O.2     1  UNL11      -0.2758
      4 N          -6.1980   -0.6535    0.7940 N.am    1  UNL11      -0.2857
      5 C          -4.9192   -0.4060    0.2282 C.ar    1  UNL11       0.0334
      6 C          -4.5946   -0.4773   -1.0924 C.ar    1  UNL11      -0.0399
      7 C          -3.2940   -0.2230   -1.5750 C.ar    1  UNL11      -0.0508
      8 C          -2.2858    0.1116   -0.7252 C.ar    1  UNL11       0.0006
      9 C          -0.9014    0.3908   -1.1618 C.ar    1  UNL11       0.0760
     10 C          -0.6688    0.9143   -2.4058 C.ar    1  UNL11      -0.0174
     11 C           0.6478    1.1772   -2.8145 C.ar    1  UNL11       0.0332
     12 N           1.6090    0.8956   -1.9499 N.ar    1  UNL11      -0.2226
     13 C           1.4165    0.3820   -0.7229 C.ar    1  UNL11       0.2200
     14 N           2.4319    0.0796    0.2029 N.pl3   1  UNL11      -0.2836
     15 C           3.8269    0.2459    0.0499 C.ar    1  UNL11       0.0343
     16 C           4.4001    0.7547   -1.0879 C.ar    1  UNL11      -0.0404
     17 C           5.7695    0.9041   -1.2046 C.ar    1  UNL11      -0.0593
     18 C           6.5780    0.5366   -0.1615 C.ar    1  UNL11      -0.0495
     19 C           6.0511    0.0155    1.0148 C.ar    1  UNL11       0.0382
     20 C           6.9004   -0.3772    2.1266 C.2     1  UNL11       0.2416
     21 N           6.5333   -1.4250    3.0080 N.am    1  UNL11      -0.3253
     22 O           7.9883    0.2137    2.3269 O.2     1  UNL11      -0.2704
     23 C           4.6943   -0.1173    1.0929 C.ar    1  UNL11      -0.0284
     24 N           0.1252    0.1313   -0.3396 N.ar    1  UNL11      -0.2142
     25 C          -2.5960    0.1907    0.6325 C.ar    1  UNL11      -0.0508
     26 C          -3.8640   -0.0590    1.0873 C.ar    1  UNL11      -0.0399
     27 H          -4.4085   -1.9601    2.1313 H       1  UNL11       0.0323
     28 H          -5.5211   -2.6468    3.3390 H       1  UNL11       0.0323
     29 H          -5.3471   -3.4744    1.6970 H       1  UNL11       0.0323
     30 H          -7.0322   -0.0499    0.4839 H       1  UNL11       0.1548
     31 H          -5.3431   -0.7326   -1.8232 H       1  UNL11       0.0636
     32 H          -3.1028   -0.2977   -2.6414 H       1  UNL11       0.0625
     33 H          -1.4628    1.1450   -3.1156 H       1  UNL11       0.0654
     34 H           0.7885    1.5888   -3.8005 H       1  UNL11       0.0831
     35 H           2.1198   -0.3235    1.1336 H       1  UNL11       0.1550
     36 H           3.8239    1.0645   -1.9481 H       1  UNL11       0.0636
     37 H           6.2332    1.3100   -2.1109 H       1  UNL11       0.0618
     38 H           7.6535    0.6438   -0.2283 H       1  UNL11       0.0625
     39 H           5.5282   -1.5306    3.2582 H       1  UNL11       0.1453
     40 H           7.2493   -2.0711    3.3946 H       1  UNL11       0.1453
     41 H           4.2377   -0.5144    1.9793 H       1  UNL11       0.0644
     42 H          -1.7738    0.4594    1.2887 H       1  UNL11       0.0625
     43 H          -4.0775    0.0106    2.1567 H       1  UNL11       0.0636
@<TRIPOS>BOND
     1     1     2    1
     2     1    27    1
     3     1    28    1
     4     1    29    1
     5     2     3    2
     6     2     4   am
     7     4     5    1
     8     4    30    1
     9     5     6   ar
    10     6     7   ar
    11     6    31    1
    12     7     8   ar
    13     7    32    1
    14     8     9    1
    15     8    25   ar
    16     9    10   ar
    17    10    11   ar
    18    10    33    1
    19    11    12   ar
    20    11    34    1
    21    12    13   ar
    22    13    14    1
    23    13    24   ar
    24    14    15    1
    25    14    35    1
    26    15    16   ar
    27    16    17   ar
    28    16    36    1
    29    17    18   ar
    30    17    37    1
    31    18    19   ar
    32    18    38    1
    33    19    20    1
    34    19    23   ar
    35    20    21   am
    36    20    22    2
    37    21    39    1
    38    21    40    1
    39    23    15   ar
    40    23    41    1
    41    24     9   ar
    42    25    26   ar
    43    25    42    1
    44    26     5   ar
    45    26    43    1
@<TRIPOS>MOLECULE
*****
 43 45 0 0 0
SMALL
GASTEIGER

@<TRIPOS>ATOM
      1 C          -6.1167   -3.1482   -0.0767 C.3     1  UNL11       0.0125
      2 C          -6.8107   -2.0251    0.6664 C.2     1  UNL11       0.2141
      3 O          -7.9324   -2.2466    1.1622 O.2     1  UNL11      -0.2758
      4 N          -6.1776   -0.7908    0.7708 N.am    1  UNL11      -0.2857
      5 C          -4.9099   -0.4655    0.2197 C.ar    1  UNL11       0.0334
      6 C          -4.6781    0.0537   -1.0178 C.ar    1  UNL11      -0.0399
      7 C          -3.3830    0.3430   -1.4953 C.ar    1  UNL11      -0.0508
      8 C          -2.2858    0.1116   -0.7252 C.ar    1  UNL11       0.0006
      9 C          -0.9014    0.3908   -1.1618 C.ar    1  UNL11       0.0760
     10 C          -0.6688    0.9143   -2.4058 C.ar    1  UNL11      -0.0174
     11 C           0.6478    1.1772   -2.8145 C.ar    1  UNL11       0.0332
     12 N           1.6090    0.8956   -1.9499 N.ar    1  UNL11      -0.2226
     13 C           1.4165    0.3820   -0.7229 C.ar    1  UNL11       0.2200
     14 N           2.4319    0.0796    0.2029 N.pl3   1  UNL11      -0.2836
     15 C           3.7643   -0.3091   -0.0628 C.ar    1  UNL11       0.0343
     16 C           4.1321   -1.0016   -1.1884 C.ar    1  UNL11      -0.0404
     17 C           5.4457   -1.3665   -1.4175 C.ar    1  UNL11      -0.0593
     18 C           6.4072   -1.0309   -0.5012 C.ar    1  UNL11      -0.0495
     19 C           6.0910   -0.3296    0.6569 C.ar    1  UNL11       0.0382
     20 C           7.1036    0.0310    1.6347 C.2     1  UNL11       0.2416
     21 N           8.4661   -0.3167    1.4559 N.am    1  UNL11      -0.3253
     22 O           6.7831    0.6655    2.6680 O.2     1  UNL11      -0.2704
     23 C           4.7832    0.0134    0.8484 C.ar    1  UNL11      -0.0284
     24 N           0.1252    0.1313   -0.3396 N.ar    1  UNL11      -0.2142
     25 C          -2.4999   -0.4200    0.5465 C.ar    1  UNL11      -0.0508
     26 C          -3.7637   -0.6963    0.9976 C.ar    1  UNL11      -0.0399
     27 H          -5.0162   -2.9603   -0.0308 H       1  UNL11       0.0323
     28 H          -6.2925   -4.0807    0.5020 H       1  UNL11       0.0323
     29 H          -6.4730   -3.2091   -1.1164 H       1  UNL11       0.0323
     30 H          -6.7172   -0.0395    1.3193 H       1  UNL11       0.1548
     31 H          -5.4996    0.2665   -1.6806 H       1  UNL11       0.0636
     32 H          -3.2686    0.7561   -2.4931 H       1  UNL11       0.0625
     33 H          -1.4628    1.1450   -3.1156 H       1  UNL11       0.0654
     34 H           0.7885    1.5888   -3.8005 H       1  UNL11       0.0831
     35 H           2.1731    0.1497    1.2297 H       1  UNL11       0.1550
     36 H           3.4274   -1.2988   -1.9520 H       1  UNL11       0.0636
     37 H           5.7456   -1.9198   -2.3148 H       1  UNL11       0.0618
     38 H           7.4430   -1.3052   -0.6576 H       1  UNL11       0.0625
     39 H           8.6882   -1.2350    1.0185 H       1  UNL11       0.1453
     40 H           9.2240    0.3286    1.7540 H       1  UNL11       0.1453
     41 H           4.4868    0.5552    1.7262 H       1  UNL11       0.0644
     42 H          -1.6079   -0.5951    1.1402 H       1  UNL11       0.0625
     43 H          -3.9008   -1.1125    1.9986 H       1  UNL11       0.0636
@<TRIPOS>BOND
     1     1     2    1
     2     1    27    1
     3     1    28    1
     4     1    29    1
     5     2     3    2
     6     2     4   am
     7     4     5    1
     8     4    30    1
     9     5     6   ar
    10     6     7   ar
    11     6    31    1
    12     7     8   ar
    13     7    32    1
    14     8     9    1
    15     8    25   ar
    16     9    10   ar
    17    10    11   ar
    18    10    33    1
    19    11    12   ar
    20    11    34    1
    21    12    13   ar
    22    13    14    1
    23    13    24   ar
    24    14    15    1
    25    14    35    1
    26    15    16   ar
    27    16    17   ar
    28    16    36    1
    29    17    18   ar
    30    17    37    1
    31    18    19   ar
    32    18    38    1
    33    19    20    1
    34    19    23   ar
    35    20    21   am
    36    20    22    2
    37    21    39    1
    38    21    40    1
    39    23    15   ar
    40    23    41    1
    41    24     9   ar
    42    25    26   ar
    43    25    42    1
    44    26     5   ar
    45    26    43    1
@<TRIPOS>MOLECULE
*****
 43 45 0 0 0
SMALL
GASTEIGER

@<TRIPOS>ATOM
      1 C          -7.2592    1.2793    0.0858 C.3     1  UNL11       0.0125
      2 C          -7.3272   -0.1125    0.6802 C.2     1  UNL11       0.2141
      3 O          -8.4137   -0.5051    1.1477 O.2     1  UNL11      -0.2758
      4 N          -6.1822   -0.9024    0.6851 N.am    1  UNL11      -0.2857
      5 C          -4.9113   -0.5147    0.1838 C.ar    1  UNL11       0.0334
      6 C          -4.6661    0.4928   -0.6991 C.ar    1  UNL11      -0.0399
      7 C          -3.3702    0.8111   -1.1555 C.ar    1  UNL11      -0.0508
      8 C          -2.2858    0.1116   -0.7252 C.ar    1  UNL11       0.0006
      9 C          -0.9014    0.3908   -1.1618 C.ar    1  UNL11       0.0760
     10 C          -0.6688    0.9143   -2.4058 C.ar    1  UNL11      -0.0174
     11 C           0.6478    1.1772   -2.8145 C.ar    1  UNL11       0.0332
     12 N           1.6090    0.8956   -1.9499 N.ar    1  UNL11      -0.2226
     13 C           1.4165    0.3820   -0.7229 C.ar    1  UNL11       0.2200
     14 N           2.4319    0.0796    0.2029 N.pl3   1  UNL11      -0.2836
     15 C           2.3596    0.1073    1.6139 C.ar    1  UNL11       0.0343
     16 C           3.1029   -0.7189    2.4182 C.ar    1  UNL11      -0.0404
     17 C           3.0078   -0.6655    3.7964 C.ar    1  UNL11      -0.0593
     18 C           2.1519    0.2323    4.3778 C.ar    1  UNL11      -0.0495
     19 C           1.3748    1.0934    3.6113 C.ar    1  UNL11       0.0382
     20 C           0.4641    2.0490    4.2186 C.2     1  UNL11       0.2416
     21 N           0.7167    2.6068    5.4971 N.am    1  UNL11      -0.3253
     22 O          -0.5756    2.4009    3.6119 O.2     1  UNL11      -0.2704
     23 C           1.4960    1.0113    2.2536 C.ar    1  UNL11      -0.0284
     24 N           0.1252    0.1313   -0.3396 N.ar    1  UNL11      -0.2142
     25 C          -2.5137   -0.9250    0.1800 C.ar    1  UNL11      -0.0508
     26 C          -3.7781   -1.2233    0.6149 C.ar    1  UNL11      -0.0399
     27 H          -6.4335    1.2901   -0.6668 H       1  UNL11       0.0323
     28 H          -8.1983    1.4360   -0.4877 H       1  UNL11       0.0323
     29 H          -7.0997    2.0336    0.8714 H       1  UNL11       0.0323
     30 H          -6.2988   -1.8830    1.1108 H       1  UNL11       0.1548
     31 H          -5.4763    1.0916   -1.0791 H       1  UNL11       0.0636
     32 H          -3.2448    1.6275   -1.8606 H       1  UNL11       0.0625
     33 H          -1.4628    1.1450   -3.1156 H       1  UNL11       0.0654
     34 H           0.7885    1.5888   -3.8005 H       1  UNL11       0.0831
     35 H           3.3712   -0.2054   -0.2003 H       1  UNL11       0.1550
     36 H           3.7970   -1.4498    2.0284 H       1  UNL11       0.0636
     37 H           3.5990   -1.3229    4.4441 H       1  UNL11       0.0618
     38 H           2.0593    0.2935    5.4551 H       1  UNL11       0.0625
     39 H           1.1512    2.0005    6.2234 H       1  UNL11       0.1453
     40 H           0.4742    3.5958    5.7040 H       1  UNL11       0.1453
     41 H           0.9182    1.6539    1.6171 H       1  UNL11       0.0644
     42 H          -1.6317   -1.4671    0.5072 H       1  UNL11       0.0625
     43 H          -3.9262   -2.0411    1.3244 H       1  UNL11       0.0636
@<TRIPOS>BOND
     1     1     2    1
     2     1    27    1
     3     1    28    1
     4     1    29    1
     5     2     3    2
     6     2     4   am
     7     4     5    1
     8     4    30    1
     9     5     6   ar
    10     6     7   ar
    11     6    31    1
    12     7     8   ar
    13     7    32    1
    14     8     9    1
    15     8    25   ar
    16     9    10   ar
    17    10    11   ar
    18    10    33    1
    19    11    12   ar
    20    11    34    1
    21    12    13   ar
    22    13    14    1
    23    13    24   ar
    24    14    15    1
    25    14    35    1
    26    15    16   ar
    27    16    17   ar
    28    16    36    1
    29    17    18   ar
    30    17    37    1
    31    18    19   ar
    32    18    38    1
    33    19    20    1
    34    19    23   ar
    35    20    21   am
    36    20    22    2
    37    21    39    1
    38    21    40    1
    39    23    15   ar
    40    23    41    1
    41    24     9   ar
    42    25    26   ar
    43    25    42    1
    44    26     5   ar
    45    26    43    1
@<TRIPOS>MOLECULE
*****
 43 45 0 0 0
SMALL
GASTEIGER

@<TRIPOS>ATOM
      1 C          -6.9671    1.8111   -0.0536 C.3     1  UNL11       0.0125
      2 C          -7.3514    0.3863    0.2889 C.2     1  UNL11       0.2141
      3 O          -8.5435    0.1421    0.5578 O.2     1  UNL11      -0.2758
      4 N          -6.3676   -0.5972    0.2922 N.am    1  UNL11      -0.2857
      5 C          -4.9917   -0.3876    0.0103 C.ar    1  UNL11       0.0334
      6 C          -3.9496   -0.6362    0.8511 C.ar    1  UNL11      -0.0399
      7 C          -2.6064   -0.3926    0.4969 C.ar    1  UNL11      -0.0508
      8 C          -2.2858    0.1116   -0.7252 C.ar    1  UNL11       0.0006
      9 C          -0.9014    0.3908   -1.1618 C.ar    1  UNL11       0.0760
     10 C          -0.6688    0.9143   -2.4058 C.ar    1  UNL11      -0.0174
     11 C           0.6478    1.1772   -2.8145 C.ar    1  UNL11       0.0332
     12 N           1.6090    0.8956   -1.9499 N.ar    1  UNL11      -0.2226
     13 C           1.4165    0.3820   -0.7229 C.ar    1  UNL11       0.2200
     14 N           2.4319    0.0796    0.2029 N.pl3   1  UNL11      -0.2836
     15 C           2.4369   -0.9320    1.1897 C.ar    1  UNL11       0.0343
     16 C           3.1076   -0.8132    2.3805 C.ar    1  UNL11      -0.0404
     17 C           3.0916   -1.8229    3.3247 C.ar    1  UNL11      -0.0593
     18 C           2.3907   -2.9719    3.0696 C.ar    1  UNL11      -0.0495
     19 C           1.6930   -3.1460    1.8797 C.ar    1  UNL11       0.0382
     20 C           0.9467   -4.3610    1.6000 C.2     1  UNL11       0.2416
     21 N           0.7771   -4.8407    0.2769 N.am    1  UNL11      -0.3253
     22 O           0.4331   -5.0145    2.5391 O.2     1  UNL11      -0.2704
     23 C           1.7322   -2.1270    0.9716 C.ar    1  UNL11      -0.0284
     24 N           0.1252    0.1313   -0.3396 N.ar    1  UNL11      -0.2142
     25 C          -3.3379    0.3737   -1.6029 C.ar    1  UNL11      -0.0508
     26 C          -4.6382    0.1323   -1.2454 C.ar    1  UNL11      -0.0399
     27 H          -6.0530    1.7743   -0.6951 H       1  UNL11       0.0323
     28 H          -7.7756    2.2222   -0.6961 H       1  UNL11       0.0323
     29 H          -6.7962    2.4013    0.8596 H       1  UNL11       0.0323
     30 H          -6.7064   -1.5891    0.5326 H       1  UNL11       0.1548
     31 H          -4.1280   -1.0399    1.8333 H       1  UNL11       0.0636
     32 H          -1.8228   -0.6134    1.2156 H       1  UNL11       0.0625
     33 H          -1.4628    1.1450   -3.1156 H       1  UNL11       0.0654
     34 H           0.7885    1.5888   -3.8005 H       1  UNL11       0.0831
     35 H           3.3053    0.6810    0.1615 H       1  UNL11       0.1550
     36 H           3.6798    0.0638    2.6477 H       1  UNL11       0.0636
     37 H           3.6254   -1.7338    4.2778 H       1  UNL11       0.0618
     38 H           2.3627   -3.7773    3.7930 H       1  UNL11       0.0625
     39 H           0.6479   -4.1460   -0.4876 H       1  UNL11       0.1453
     40 H           0.7814   -5.8601    0.0753 H       1  UNL11       0.1453
     41 H           1.2104   -2.2117    0.0375 H       1  UNL11       0.0644
     42 H          -3.0547    0.7756   -2.5709 H       1  UNL11       0.0625
     43 H          -5.4418    0.3475   -1.9540 H       1  UNL11       0.0636
@<TRIPOS>BOND
     1     1     2    1
     2     1    27    1
     3     1    28    1
     4     1    29    1
     5     2     3    2
     6     2     4   am
     7     4     5    1
     8     4    30    1
     9     5     6   ar
    10     6     7   ar
    11     6    31    1
    12     7     8   ar
    13     7    32    1
    14     8     9    1
    15     8    25   ar
    16     9    10   ar
    17    10    11   ar
    18    10    33    1
    19    11    12   ar
    20    11    34    1
    21    12    13   ar
    22    13    14    1
    23    13    24   ar
    24    14    15    1
    25    14    35    1
    26    15    16   ar
    27    16    17   ar
    28    16    36    1
    29    17    18   ar
    30    17    37    1
    31    18    19   ar
    32    18    38    1
    33    19    20    1
    34    19    23   ar
    35    20    21   am
    36    20    22    2
    37    21    39    1
    38    21    40    1
    39    23    15   ar
    40    23    41    1
    41    24     9   ar
    42    25    26   ar
    43    25    42    1
    44    26     5   ar
    45    26    43    1
@<TRIPOS>MOLECULE
*****
 43 45 0 0 0
SMALL
GASTEIGER

@<TRIPOS>ATOM
      1 C          -7.9556   -1.3446    2.3992 C.3     1  UNL11       0.0125
      2 C          -6.5565   -0.9003    2.0248 C.2     1  UNL11       0.2141
      3 O          -5.7834   -0.5459    2.9357 O.2     1  UNL11      -0.2758
      4 N          -6.1822   -0.9024    0.6851 N.am    1  UNL11      -0.2857
      5 C          -4.9113   -0.5147    0.1838 C.ar    1  UNL11       0.0334
      6 C          -4.6661    0.4928   -0.6991 C.ar    1  UNL11      -0.0399
      7 C          -3.3702    0.8111   -1.1555 C.ar    1  UNL11      -0.0508
      8 C          -2.2858    0.1116   -0.7252 C.ar    1  UNL11       0.0006
      9 C          -0.9014    0.3908   -1.1618 C.ar    1  UNL11       0.0760
     10 C          -0.6688    0.9143   -2.4058 C.ar    1  UNL11      -0.0174
     11 C           0.6478    1.1772   -2.8145 C.ar    1  UNL11       0.0332
     12 N           1.6090    0.8956   -1.9499 N.ar    1  UNL11      -0.2226
     13 C           1.4165    0.3820   -0.7229 C.ar    1  UNL11       0.2200
     14 N           2.4319    0.0796    0.2029 N.pl3   1  UNL11      -0.2836
     15 C           2.3596    0.1073    1.6139 C.ar    1  UNL11       0.0343
     16 C           3.1029   -0.7189    2.4182 C.ar    1  UNL11      -0.0404
     17 C           3.0078   -0.6655    3.7964 C.ar    1  UNL11      -0.0593
     18 C           2.1519    0.2323    4.3778 C.ar    1  UNL11      -0.0495
     19 C           1.3748    1.0934    3.6113 C.ar    1  UNL11       0.0382
     20 C           0.4641    2.0490    4.2186 C.2     1  UNL11       0.2416
     21 N           0.3221    2.1492    5.6255 N.am    1  UNL11      -0.3253
     22 O          -0.2210    2.8121    3.4966 O.2     1  UNL11      -0.2704
     23 C           1.4960    1.0113    2.2536 C.ar    1  UNL11      -0.0284
     24 N           0.1252    0.1313   -0.3396 N.ar    1  UNL11      -0.2142
     25 C          -2.5137   -0.9250    0.1800 C.ar    1  UNL11      -0.0508
     26 C          -3.7781   -1.2233    0.6149 C.ar    1  UNL11      -0.0399
     27 H          -8.3195   -2.0377    1.6019 H       1  UNL11       0.0323
     28 H          -7.8678   -1.9583    3.3217 H       1  UNL11       0.0323
     29 H          -8.6238   -0.4777    2.5167 H       1  UNL11       0.0323
     30 H          -6.9382   -1.2305   -0.0056 H       1  UNL11       0.1548
     31 H          -5.4763    1.0916   -1.0791 H       1  UNL11       0.0636
     32 H          -3.2448    1.6275   -1.8606 H       1  UNL11       0.0625
     33 H          -1.4628    1.1450   -3.1156 H       1  UNL11       0.0654
     34 H           0.7885    1.5888   -3.8005 H       1  UNL11       0.0831
     35 H           3.3712   -0.2054   -0.2003 H       1  UNL11       0.1550
     36 H           3.7970   -1.4498    2.0284 H       1  UNL11       0.0636
     37 H           3.5990   -1.3229    4.4441 H       1  UNL11       0.0618
     38 H           2.0593    0.2935    5.4551 H       1  UNL11       0.0625
     39 H           0.3682    1.2757    6.1900 H       1  UNL11       0.1453
     40 H           0.1756    3.0712    6.0816 H       1  UNL11       0.1453
     41 H           0.9182    1.6539    1.6171 H       1  UNL11       0.0644
     42 H          -1.6317   -1.4671    0.5072 H       1  UNL11       0.0625
     43 H          -3.9262   -2.0411    1.3244 H       1  UNL11       0.0636
@<TRIPOS>BOND
     1     1     2    1
     2     1    27    1
     3     1    28    1
     4     1    29    1
     5     2     3    2
     6     2     4   am
     7     4     5    1
     8     4    30    1
     9     5     6   ar
    10     6     7   ar
    11     6    31    1
    12     7     8   ar
    13     7    32    1
    14     8     9    1
    15     8    25   ar
    16     9    10   ar
    17    10    11   ar
    18    10    33    1
    19    11    12   ar
    20    11    34    1
    21    12    13   ar
    22    13    14    1
    23    13    24   ar
    24    14    15    1
    25    14    35    1
    26    15    16   ar
    27    16    17   ar
    28    16    36    1
    29    17    18   ar
    30    17    37    1
    31    18    19   ar
    32    18    38    1
    33    19    20    1
    34    19    23   ar
    35    20    21   am
    36    20    22    2
    37    21    39    1
    38    21    40    1
    39    23    15   ar
    40    23    41    1
    41    24     9   ar
    42    25    26   ar
    43    25    42    1
    44    26     5   ar
    45    26    43    1
@<TRIPOS>MOLECULE
*****
 43 45 0 0 0
SMALL
GASTEIGER

@<TRIPOS>ATOM
      1 C          -8.6702   -0.8421    0.9760 C.3     1  UNL11       0.0125
      2 C          -7.3961   -0.3102    0.3525 C.2     1  UNL11       0.2141
      3 O          -7.4794    0.6462   -0.4421 O.2     1  UNL11      -0.2758
      4 N          -6.1822   -0.9024    0.6851 N.am    1  UNL11      -0.2857
      5 C          -4.9113   -0.5147    0.1838 C.ar    1  UNL11       0.0334
      6 C          -4.6661    0.4928   -0.6991 C.ar    1  UNL11      -0.0399
      7 C          -3.3702    0.8111   -1.1555 C.ar    1  UNL11      -0.0508
      8 C          -2.2858    0.1116   -0.7252 C.ar    1  UNL11       0.0006
      9 C          -0.9014    0.3908   -1.1618 C.ar    1  UNL11       0.0760
     10 C          -0.6688    0.9143   -2.4058 C.ar    1  UNL11      -0.0174
     11 C           0.6478    1.1772   -2.8145 C.ar    1  UNL11       0.0332
     12 N           1.6090    0.8956   -1.9499 N.ar    1  UNL11      -0.2226
     13 C           1.4165    0.3820   -0.7229 C.ar    1  UNL11       0.2200
     14 N           2.4319    0.0796    0.2029 N.pl3   1  UNL11      -0.2836
     15 C           2.3596    0.1073    1.6139 C.ar    1  UNL11       0.0343
     16 C           3.1029   -0.7189    2.4182 C.ar    1  UNL11      -0.0404
     17 C           3.0078   -0.6655    3.7964 C.ar    1  UNL11      -0.0593
     18 C           2.1519    0.2323    4.3778 C.ar    1  UNL11      -0.0495
     19 C           1.3748    1.0934    3.6113 C.ar    1  UNL11       0.0382
     20 C           0.4641    2.0490    4.2186 C.2     1  UNL11       0.2416
     21 N          -0.7271    2.4572    3.5676 N.am    1  UNL11      -0.3253
     22 O           0.7216    2.5351    5.3457 O.2     1  UNL11      -0.2704
     23 C           1.4960    1.0113    2.2536 C.ar    1  UNL11      -0.0284
     24 N           0.1252    0.1313   -0.3396 N.ar    1  UNL11      -0.2142
     25 C          -2.5137   -0.9250    0.1800 C.ar    1  UNL11      -0.0508
     26 C          -3.7781   -1.2233    0.6149 C.ar    1  UNL11      -0.0399
     27 H          -8.4013   -1.3203    1.9493 H       1  UNL11       0.0323
     28 H          -9.3013    0.0367    1.2306 H       1  UNL11       0.0323
     29 H          -9.1696   -1.5537    0.3007 H       1  UNL11       0.0323
     30 H          -6.2417   -1.7187    1.3826 H       1  UNL11       0.1548
     31 H          -5.4763    1.0916   -1.0791 H       1  UNL11       0.0636
     32 H          -3.2448    1.6275   -1.8606 H       1  UNL11       0.0625
     33 H          -1.4628    1.1450   -3.1156 H       1  UNL11       0.0654
     34 H           0.7885    1.5888   -3.8005 H       1  UNL11       0.0831
     35 H           3.3712   -0.2054   -0.2003 H       1  UNL11       0.1550
     36 H           3.7970   -1.4498    2.0284 H       1  UNL11       0.0636
     37 H           3.5990   -1.3229    4.4441 H       1  UNL11       0.0618
     38 H           2.0593    0.2935    5.4551 H       1  UNL11       0.0625
     39 H          -0.7100    2.5724    2.5330 H       1  UNL11       0.1453
     40 H          -1.5953    2.6372    4.1094 H       1  UNL11       0.1453
     41 H           0.9182    1.6539    1.6171 H       1  UNL11       0.0644
     42 H          -1.6317   -1.4671    0.5072 H       1  UNL11       0.0625
     43 H          -3.9262   -2.0411    1.3244 H       1  UNL11       0.0636
@<TRIPOS>BOND
     1     1     2    1
     2     1    27    1
     3     1    28    1
     4     1    29    1
     5     2     3    2
     6     2     4   am
     7     4     5    1
     8     4    30    1
     9     5     6   ar
    10     6     7   ar
    11     6    31    1
    12     7     8   ar
    13     7    32    1
    14     8     9    1
    15     8    25   ar
    16     9    10   ar
    17    10    11   ar
    18    10    33    1
    19    11    12   ar
    20    11    34    1
    21    12    13   ar
    22    13    14    1
    23    13    24   ar
    24    14    15    1
    25    14    35    1
    26    15    16   ar
    27    16    17   ar
    28    16    36    1
    29    17    18   ar
    30    17    37    1
    31    18    19   ar
    32    18    38    1
    33    19    20    1
    34    19    23   ar
    35    20    21   am
    36    20    22    2
    37    21    39    1
    38    21    40    1
    39    23    15   ar
    40    23    41    1
    41    24     9   ar
    42    25    26   ar
    43    25    42    1
    44    26     5   ar
    45    26    43    1
@<TRIPOS>MOLECULE
*****
 43 45 0 0 0
SMALL
GASTEIGER

@<TRIPOS>ATOM
      1 C          -7.1878    1.1104   -1.2015 C.3     1  UNL11       0.0125
      2 C          -7.4351   -0.0433   -0.2514 C.2     1  UNL11       0.2141
      3 O          -8.6129   -0.3359    0.0321 O.2     1  UNL11      -0.2758
      4 N          -6.3467   -0.7347    0.2706 N.am    1  UNL11      -0.2857
      5 C          -4.9821   -0.4471    0.0025 C.ar    1  UNL11       0.0334
      6 C          -4.0352   -0.1047    0.9194 C.ar    1  UNL11      -0.0399
      7 C          -2.6976    0.1740    0.5698 C.ar    1  UNL11      -0.0508
      8 C          -2.2858    0.1116   -0.7252 C.ar    1  UNL11       0.0006
      9 C          -0.9014    0.3908   -1.1618 C.ar    1  UNL11       0.0760
     10 C          -0.6688    0.9143   -2.4058 C.ar    1  UNL11      -0.0174
     11 C           0.6478    1.1772   -2.8145 C.ar    1  UNL11       0.0332
     12 N           1.6090    0.8956   -1.9499 N.ar    1  UNL11      -0.2226
     13 C           1.4165    0.3820   -0.7229 C.ar    1  UNL11       0.2200
     14 N           2.4319    0.0796    0.2029 N.pl3   1  UNL11      -0.2836
     15 C           3.8269    0.2459    0.0499 C.ar    1  UNL11       0.0343
     16 C           4.6696    0.5071    1.1004 C.ar    1  UNL11      -0.0404
     17 C           6.0306    0.6643    0.9155 C.ar    1  UNL11      -0.0593
     18 C           6.5553    0.5576   -0.3455 C.ar    1  UNL11      -0.0495
     19 C           5.7480    0.2940   -1.4463 C.ar    1  UNL11       0.0382
     20 C           6.2951    0.1790   -2.7875 C.2     1  UNL11       0.2416
     21 N           5.5384    0.5363   -3.9317 N.am    1  UNL11      -0.3253
     22 O           7.4634   -0.2445   -2.9565 O.2     1  UNL11      -0.2704
     23 C           4.4089    0.1450   -1.2242 C.ar    1  UNL11      -0.0284
     24 N           0.1252    0.1313   -0.3396 N.ar    1  UNL11      -0.2142
     25 C          -3.2394   -0.2376   -1.6815 C.ar    1  UNL11      -0.0508
     26 C          -4.5355   -0.5057   -1.3276 C.ar    1  UNL11      -0.0399
     27 H          -6.2007    0.9405   -1.6967 H       1  UNL11       0.0323
     28 H          -7.9505    1.0399   -2.0068 H       1  UNL11       0.0323
     29 H          -7.2106    2.0715   -0.6653 H       1  UNL11       0.0323
     30 H          -6.5892   -1.5491    0.9296 H       1  UNL11       0.1548
     31 H          -4.2885   -0.0397    1.9640 H       1  UNL11       0.0636
     32 H          -1.9927    0.4415    1.3514 H       1  UNL11       0.0625
     33 H          -1.4628    1.1450   -3.1156 H       1  UNL11       0.0654
     34 H           0.7885    1.5888   -3.8005 H       1  UNL11       0.0831
     35 H           2.1198   -0.3235    1.1336 H       1  UNL11       0.1550
     36 H           4.3250    0.6041    2.1201 H       1  UNL11       0.0636
     37 H           6.7088    0.8731    1.7507 H       1  UNL11       0.0618
     38 H           7.6180    0.6766   -0.5164 H       1  UNL11       0.0625
     39 H           4.5176    0.3315   -3.9325 H       1  UNL11       0.1453
     40 H           5.9912    0.9909   -4.7490 H       1  UNL11       0.1453
     41 H           3.7426   -0.0595   -2.0403 H       1  UNL11       0.0644
     42 H          -2.8847   -0.2800   -2.7068 H       1  UNL11       0.0625
     43 H          -5.2607   -0.7767   -2.0987 H       1  UNL11       0.0636
@<TRIPOS>BOND
     1     1     2    1
     2     1    27    1
     3     1    28    1
     4     1    29    1
     5     2     3    2
     6     2     4   am
     7     4     5    1
     8     4    30    1
     9     5     6   ar
    10     6     7   ar
    11     6    31    1
    12     7     8   ar
    13     7    32    1
    14     8     9    1
    15     8    25   ar
    16     9    10   ar
    17    10    11   ar
    18    10    33    1
    19    11    12   ar
    20    11    34    1
    21    12    13   ar
    22    13    14    1
    23    13    24   ar
    24    14    15    1
    25    14    35    1
    26    15    16   ar
    27    16    17   ar
    28    16    36    1
    29    17    18   ar
    30    17    37    1
    31    18    19   ar
    32    18    38    1
    33    19    20    1
    34    19    23   ar
    35    20    21   am
    36    20    22    2
    37    21    39    1
    38    21    40    1
    39    23    15   ar
    40    23    41    1
    41    24     9   ar
    42    25    26   ar
    43    25    42    1
    44    26     5   ar
    45    26    43    1
@<TRIPOS>MOLECULE
*****
 43 45 0 0 0
SMALL
GASTEIGER

@<TRIPOS>ATOM
      1 C          -5.3686   -2.5202    2.2454 C.3     1  UNL11       0.0125
      2 C          -6.4868   -1.6323    1.7393 C.2     1  UNL11       0.2141
      3 O          -7.6350   -1.8099    2.1902 O.2     1  UNL11      -0.2758
      4 N          -6.1980   -0.6535    0.7940 N.am    1  UNL11      -0.2857
      5 C          -4.9192   -0.4060    0.2282 C.ar    1  UNL11       0.0334
      6 C          -4.5946   -0.4773   -1.0924 C.ar    1  UNL11      -0.0399
      7 C          -3.2940   -0.2230   -1.5750 C.ar    1  UNL11      -0.0508
      8 C          -2.2858    0.1116   -0.7252 C.ar    1  UNL11       0.0006
      9 C          -0.9014    0.3908   -1.1618 C.ar    1  UNL11       0.0760
     10 C          -0.6688    0.9143   -2.4058 C.ar    1  UNL11      -0.0174
     11 C           0.6478    1.1772   -2.8145 C.ar    1  UNL11       0.0332
     12 N           1.6090    0.8956   -1.9499 N.ar    1  UNL11      -0.2226
     13 C           1.4165    0.3820   -0.7229 C.ar    1  UNL11       0.2200
     14 N           2.4319    0.0796    0.2029 N.pl3   1  UNL11      -0.2836
     15 C           2.3596    0.1073    1.6139 C.ar    1  UNL11       0.0343
     16 C           3.1029   -0.7189    2.4182 C.ar    1  UNL11      -0.0404
     17 C           3.0078   -0.6655    3.7964 C.ar    1  UNL11      -0.0593
     18 C           2.1519    0.2323    4.3778 C.ar    1  UNL11      -0.0495
     19 C           1.3748    1.0934    3.6113 C.ar    1  UNL11       0.0382
     20 C           0.4641    2.0490    4.2186 C.2     1  UNL11       0.2416
     21 N          -0.1572    1.7933    5.4668 N.am    1  UNL11      -0.3253
     22 O           0.2097    3.1318    3.6393 O.2     1  UNL11      -0.2704
     23 C           1.4960    1.0113    2.2536 C.ar    1  UNL11      -0.0284
     24 N           0.1252    0.1313   -0.3396 N.ar    1  UNL11      -0.2142
     25 C          -2.5960    0.1907    0.6325 C.ar    1  UNL11      -0.0508
     26 C          -3.8640   -0.0590    1.0873 C.ar    1  UNL11      -0.0399
     27 H          -4.4085   -1.9601    2.1313 H       1  UNL11       0.0323
     28 H          -5.5211   -2.6468    3.3390 H       1  UNL11       0.0323
     29 H          -5.3471   -3.4744    1.6970 H       1  UNL11       0.0323
     30 H          -7.0322   -0.0499    0.4839 H       1  UNL11       0.1548
     31 H          -5.3431   -0.7326   -1.8232 H       1  UNL11       0.0636
     32 H          -3.1028   -0.2977   -2.6414 H       1  UNL11       0.0625
     33 H          -1.4628    1.1450   -3.1156 H       1  UNL11       0.0654
     34 H           0.7885    1.5888   -3.8005 H       1  UNL11       0.0831
     35 H           3.3712   -0.2054   -0.2003 H       1  UNL11       0.1550
     36 H           3.7970   -1.4498    2.0284 H       1  UNL11       0.0636
     37 H           3.5990   -1.3229    4.4441 H       1  UNL11       0.0618
     38 H           2.0593    0.2935    5.4551 H       1  UNL11       0.0625
     39 H          -0.4513    0.8179    5.6815 H       1  UNL11       0.1453
     40 H          -0.3153    2.5600    6.1501 H       1  UNL11       0.1453
     41 H           0.9182    1.6539    1.6171 H       1  UNL11       0.0644
     42 H          -1.7738    0.4594    1.2887 H       1  UNL11       0.0625
     43 H          -4.0775    0.0106    2.1567 H       1  UNL11       0.0636
@<TRIPOS>BOND
     1     1     2    1
     2     1    27    1
     3     1    28    1
     4     1    29    1
     5     2     3    2
     6     2     4   am
     7     4     5    1
     8     4    30    1
     9     5     6   ar
    10     6     7   ar
    11     6    31    1
    12     7     8   ar
    13     7    32    1
    14     8     9    1
    15     8    25   ar
    16     9    10   ar
    17    10    11   ar
    18    10    33    1
    19    11    12   ar
    20    11    34    1
    21    12    13   ar
    22    13    14    1
    23    13    24   ar
    24    14    15    1
    25    14    35    1
    26    15    16   ar
    27    16    17   ar
    28    16    36    1
    29    17    18   ar
    30    17    37    1
    31    18    19   ar
    32    18    38    1
    33    19    20    1
    34    19    23   ar
    35    20    21   am
    36    20    22    2
    37    21    39    1
    38    21    40    1
    39    23    15   ar
    40    23    41    1
    41    24     9   ar
    42    25    26   ar
    43    25    42    1
    44    26     5   ar
    45    26    43    1
@<TRIPOS>MOLECULE
*****
 43 45 0 0 0
SMALL
GASTEIGER

@<TRIPOS>ATOM
      1 C          -8.8352   -0.4754    0.1334 C.3     1  UNL11       0.0125
      2 C          -7.4351   -0.0433   -0.2514 C.2     1  UNL11       0.2141
      3 O          -7.3051    0.9231   -1.0274 O.2     1  UNL11      -0.2758
      4 N          -6.3467   -0.7347    0.2706 N.am    1  UNL11      -0.2857
      5 C          -4.9821   -0.4471    0.0025 C.ar    1  UNL11       0.0334
      6 C          -4.0352   -0.1047    0.9194 C.ar    1  UNL11      -0.0399
      7 C          -2.6976    0.1740    0.5698 C.ar    1  UNL11      -0.0508
      8 C          -2.2858    0.1116   -0.7252 C.ar    1  UNL11       0.0006
      9 C          -0.9014    0.3908   -1.1618 C.ar    1  UNL11       0.0760
     10 C          -0.6688    0.9143   -2.4058 C.ar    1  UNL11      -0.0174
     11 C           0.6478    1.1772   -2.8145 C.ar    1  UNL11       0.0332
     12 N           1.6090    0.8956   -1.9499 N.ar    1  UNL11      -0.2226
     13 C           1.4165    0.3820   -0.7229 C.ar    1  UNL11       0.2200
     14 N           2.4319    0.0796    0.2029 N.pl3   1  UNL11      -0.2836
     15 C           3.7643   -0.3091   -0.0628 C.ar    1  UNL11       0.0343
     16 C           4.8109   -0.0162    0.7745 C.ar    1  UNL11      -0.0404
     17 C           6.1033   -0.4119    0.4841 C.ar    1  UNL11      -0.0593
     18 C           6.3502   -1.1135   -0.6663 C.ar    1  UNL11      -0.0495
     19 C           5.3276   -1.4376   -1.5508 C.ar    1  UNL11       0.0382
     20 C           5.5793   -2.1814   -2.7734 C.2     1  UNL11       0.2416
     21 N           4.7863   -1.9944   -3.9334 N.am    1  UNL11      -0.3253
     22 O           6.5166   -3.0133   -2.8224 O.2     1  UNL11      -0.2704
     23 C           4.0644   -1.0298   -1.2301 C.ar    1  UNL11      -0.0284
     24 N           0.1252    0.1313   -0.3396 N.ar    1  UNL11      -0.2142
     25 C          -3.2394   -0.2376   -1.6815 C.ar    1  UNL11      -0.0508
     26 C          -4.5355   -0.5057   -1.3276 C.ar    1  UNL11      -0.0399
     27 H          -8.7761   -0.9817    1.1276 H       1  UNL11       0.0323
     28 H          -9.4297    0.4496    0.2957 H       1  UNL11       0.0323
     29 H          -9.2651   -1.1386   -0.6327 H       1  UNL11       0.0323
     30 H          -6.5892   -1.5491    0.9296 H       1  UNL11       0.1548
     31 H          -4.2885   -0.0397    1.9640 H       1  UNL11       0.0636
     32 H          -1.9927    0.4415    1.3514 H       1  UNL11       0.0625
     33 H          -1.4628    1.1450   -3.1156 H       1  UNL11       0.0654
     34 H           0.7885    1.5888   -3.8005 H       1  UNL11       0.0831
     35 H           2.1731    0.1497    1.2297 H       1  UNL11       0.1550
     36 H           4.6894    0.5329    1.6972 H       1  UNL11       0.0636
     37 H           6.9434   -0.1810    1.1490 H       1  UNL11       0.0618
     38 H           7.3537   -1.4347   -0.9162 H       1  UNL11       0.0625
     39 H           3.7669   -1.8209   -3.8122 H       1  UNL11       0.1453
     40 H           5.2117   -2.0297   -4.8807 H       1  UNL11       0.1453
     41 H           3.2400   -1.2547   -1.8794 H       1  UNL11       0.0644
     42 H          -2.8847   -0.2800   -2.7068 H       1  UNL11       0.0625
     43 H          -5.2607   -0.7767   -2.0987 H       1  UNL11       0.0636
@<TRIPOS>BOND
     1     1     2    1
     2     1    27    1
     3     1    28    1
     4     1    29    1
     5     2     3    2
     6     2     4   am
     7     4     5    1
     8     4    30    1
     9     5     6   ar
    10     6     7   ar
    11     6    31    1
    12     7     8   ar
    13     7    32    1
    14     8     9    1
    15     8    25   ar
    16     9    10   ar
    17    10    11   ar
    18    10    33    1
    19    11    12   ar
    20    11    34    1
    21    12    13   ar
    22    13    14    1
    23    13    24   ar
    24    14    15    1
    25    14    35    1
    26    15    16   ar
    27    16    17   ar
    28    16    36    1
    29    17    18   ar
    30    17    37    1
    31    18    19   ar
    32    18    38    1
    33    19    20    1
    34    19    23   ar
    35    20    21   am
    36    20    22    2
    37    21    39    1
    38    21    40    1
    39    23    15   ar
    40    23    41    1
    41    24     9   ar
    42    25    26   ar
    43    25    42    1
    44    26     5   ar
    45    26    43    1
@<TRIPOS>MOLECULE
*****
 43 45 0 0 0
SMALL
GASTEIGER

@<TRIPOS>ATOM
      1 C          -7.1878    1.1104   -1.2015 C.3     1  UNL11       0.0125
      2 C          -7.4351   -0.0433   -0.2514 C.2     1  UNL11       0.2141
      3 O          -8.6129   -0.3359    0.0321 O.2     1  UNL11      -0.2758
      4 N          -6.3467   -0.7347    0.2706 N.am    1  UNL11      -0.2857
      5 C          -4.9821   -0.4471    0.0025 C.ar    1  UNL11       0.0334
      6 C          -4.0352   -0.1047    0.9194 C.ar    1  UNL11      -0.0399
      7 C          -2.6976    0.1740    0.5698 C.ar    1  UNL11      -0.0508
      8 C          -2.2858    0.1116   -0.7252 C.ar    1  UNL11       0.0006
      9 C          -0.9014    0.3908   -1.1618 C.ar    1  UNL11       0.0760
     10 C          -0.6688    0.9143   -2.4058 C.ar    1  UNL11      -0.0174
     11 C           0.6478    1.1772   -2.8145 C.ar    1  UNL11       0.0332
     12 N           1.6090    0.8956   -1.9499 N.ar    1  UNL11      -0.2226
     13 C           1.4165    0.3820   -0.7229 C.ar    1  UNL11       0.2200
     14 N           2.4319    0.0796    0.2029 N.pl3   1  UNL11      -0.2836
     15 C           3.8269    0.2459    0.0499 C.ar    1  UNL11       0.0343
     16 C           4.7492   -0.5653    0.6610 C.ar    1  UNL11      -0.0404
     17 C           6.1077   -0.3746    0.4897 C.ar    1  UNL11      -0.0593
     18 C           6.5486    0.6477   -0.3084 C.ar    1  UNL11      -0.0495
     19 C           5.6585    1.5001   -0.9520 C.ar    1  UNL11       0.0382
     20 C           6.1164    2.5872   -1.8005 C.2     1  UNL11       0.2416
     21 N           7.4961    2.8333   -2.0128 N.am    1  UNL11      -0.3253
     22 O           5.2853    3.3363   -2.3672 O.2     1  UNL11      -0.2704
     23 C           4.3246    1.2805   -0.7588 C.ar    1  UNL11      -0.0284
     24 N           0.1252    0.1313   -0.3396 N.ar    1  UNL11      -0.2142
     25 C          -3.2394   -0.2376   -1.6815 C.ar    1  UNL11      -0.0508
     26 C          -4.5355   -0.5057   -1.3276 C.ar    1  UNL11      -0.0399
     27 H          -6.2007    0.9405   -1.6967 H       1  UNL11       0.0323
     28 H          -7.9505    1.0399   -2.0068 H       1  UNL11       0.0323
     29 H          -7.2106    2.0715   -0.6653 H       1  UNL11       0.0323
     30 H          -6.5892   -1.5491    0.9296 H       1  UNL11       0.1548
     31 H          -4.2885   -0.0397    1.9640 H       1  UNL11       0.0636
     32 H          -1.9927    0.4415    1.3514 H       1  UNL11       0.0625
     33 H          -1.4628    1.1450   -3.1156 H       1  UNL11       0.0654
     34 H           0.7885    1.5888   -3.8005 H       1  UNL11       0.0831
     35 H           2.1198   -0.3235    1.1336 H       1  UNL11       0.1550
     36 H           4.4730   -1.3895    1.3030 H       1  UNL11       0.0636
     37 H           6.8493   -1.0193    0.9752 H       1  UNL11       0.0618
     38 H           7.6075    0.8178   -0.4585 H       1  UNL11       0.0625
     39 H           8.1521    2.6864   -1.2179 H       1  UNL11       0.1453
     40 H           7.8439    3.1524   -2.9385 H       1  UNL11       0.1453
     41 H           3.5964    1.9103   -1.2330 H       1  UNL11       0.0644
     42 H          -2.8847   -0.2800   -2.7068 H       1  UNL11       0.0625
     43 H          -5.2607   -0.7767   -2.0987 H       1  UNL11       0.0636
@<TRIPOS>BOND
     1     1     2    1
     2     1    27    1
     3     1    28    1
     4     1    29    1
     5     2     3    2
     6     2     4   am
     7     4     5    1
     8     4    30    1
     9     5     6   ar
    10     6     7   ar
    11     6    31    1
    12     7     8   ar
    13     7    32    1
    14     8     9    1
    15     8    25   ar
    16     9    10   ar
    17    10    11   ar
    18    10    33    1
    19    11    12   ar
    20    11    34    1
    21    12    13   ar
    22    13    14    1
    23    13    24   ar
    24    14    15    1
    25    14    35    1
    26    15    16   ar
    27    16    17   ar
    28    16    36    1
    29    17    18   ar
    30    17    37    1
    31    18    19   ar
    32    18    38    1
    33    19    20    1
    34    19    23   ar
    35    20    21   am
    36    20    22    2
    37    21    39    1
    38    21    40    1
    39    23    15   ar
    40    23    41    1
    41    24     9   ar
    42    25    26   ar
    43    25    42    1
    44    26     5   ar
    45    26    43    1
@<TRIPOS>MOLECULE
*****
 43 45 0 0 0
SMALL
GASTEIGER

@<TRIPOS>ATOM
      1 C          -8.4544   -2.0879    0.3421 C.3     1  UNL11       0.0125
      2 C          -6.9877   -1.9379   -0.0059 C.2     1  UNL11       0.2141
      3 O          -6.4013   -2.9038   -0.5316 O.2     1  UNL11      -0.2758
      4 N          -6.3467   -0.7347    0.2706 N.am    1  UNL11      -0.2857
      5 C          -4.9821   -0.4471    0.0025 C.ar    1  UNL11       0.0334
      6 C          -4.0352   -0.1047    0.9194 C.ar    1  UNL11      -0.0399
      7 C          -2.6976    0.1740    0.5698 C.ar    1  UNL11      -0.0508
      8 C          -2.2858    0.1116   -0.7252 C.ar    1  UNL11       0.0006
      9 C          -0.9014    0.3908   -1.1618 C.ar    1  UNL11       0.0760
     10 C          -0.6688    0.9143   -2.4058 C.ar    1  UNL11      -0.0174
     11 C           0.6478    1.1772   -2.8145 C.ar    1  UNL11       0.0332
     12 N           1.6090    0.8956   -1.9499 N.ar    1  UNL11      -0.2226
     13 C           1.4165    0.3820   -0.7229 C.ar    1  UNL11       0.2200
     14 N           2.4319    0.0796    0.2029 N.pl3   1  UNL11      -0.2836
     15 C           3.6887    0.7083    0.3526 C.ar    1  UNL11       0.0343
     16 C           4.8066    0.0504    0.7991 C.ar    1  UNL11      -0.0404
     17 C           6.0215    0.6962    0.9340 C.ar    1  UNL11      -0.0593
     18 C           6.1165    2.0251    0.6154 C.ar    1  UNL11      -0.0495
     19 C           5.0159    2.7411    0.1582 C.ar    1  UNL11       0.0382
     20 C           5.1066    4.1508   -0.1823 C.2     1  UNL11       0.2416
     21 N           6.0306    5.0123    0.4607 N.am    1  UNL11      -0.3253
     22 O           4.3574    4.6349   -1.0639 O.2     1  UNL11      -0.2704
     23 C           3.8331    2.0693    0.0380 C.ar    1  UNL11      -0.0284
     24 N           0.1252    0.1313   -0.3396 N.ar    1  UNL11      -0.2142
     25 C          -3.2394   -0.2376   -1.6815 C.ar    1  UNL11      -0.0508
     26 C          -4.5355   -0.5057   -1.3276 C.ar    1  UNL11      -0.0399
     27 H          -8.9120   -1.0686    0.3428 H       1  UNL11       0.0323
     28 H          -8.9345   -2.6385   -0.4956 H       1  UNL11       0.0323
     29 H          -8.5772   -2.5864    1.3158 H       1  UNL11       0.0323
     30 H          -6.9608    0.0226    0.7243 H       1  UNL11       0.1548
     31 H          -4.2885   -0.0397    1.9640 H       1  UNL11       0.0636
     32 H          -1.9927    0.4415    1.3514 H       1  UNL11       0.0625
     33 H          -1.4628    1.1450   -3.1156 H       1  UNL11       0.0654
     34 H           0.7885    1.5888   -3.8005 H       1  UNL11       0.0831
     35 H           2.2377   -0.7179    0.8755 H       1  UNL11       0.1550
     36 H           4.8044   -0.9963    1.0680 H       1  UNL11       0.0636
     37 H           6.9181    0.1760    1.2902 H       1  UNL11       0.0618
     38 H           7.0568    2.5535    0.7125 H       1  UNL11       0.0625
     39 H           6.2195    4.8662    1.4740 H       1  UNL11       0.1453
     40 H           6.5071    5.7707   -0.0662 H       1  UNL11       0.1453
     41 H           2.9537    2.5763   -0.3106 H       1  UNL11       0.0644
     42 H          -2.8847   -0.2800   -2.7068 H       1  UNL11       0.0625
     43 H          -5.2607   -0.7767   -2.0987 H       1  UNL11       0.0636
@<TRIPOS>BOND
     1     1     2    1
     2     1    27    1
     3     1    28    1
     4     1    29    1
     5     2     3    2
     6     2     4   am
     7     4     5    1
     8     4    30    1
     9     5     6   ar
    10     6     7   ar
    11     6    31    1
    12     7     8   ar
    13     7    32    1
    14     8     9    1
    15     8    25   ar
    16     9    10   ar
    17    10    11   ar
    18    10    33    1
    19    11    12   ar
    20    11    34    1
    21    12    13   ar
    22    13    14    1
    23    13    24   ar
    24    14    15    1
    25    14    35    1
    26    15    16   ar
    27    16    17   ar
    28    16    36    1
    29    17    18   ar
    30    17    37    1
    31    18    19   ar
    32    18    38    1
    33    19    20    1
    34    19    23   ar
    35    20    21   am
    36    20    22    2
    37    21    39    1
    38    21    40    1
    39    23    15   ar
    40    23    41    1
    41    24     9   ar
    42    25    26   ar
    43    25    42    1
    44    26     5   ar
    45    26    43    1
@<TRIPOS>MOLECULE
*****
 43 45 0 0 0
SMALL
GASTEIGER

@<TRIPOS>ATOM
      1 C          -6.1085   -0.3422    2.7340 C.3     1  UNL11       0.0125
      2 C          -6.9447   -0.7132    1.5264 C.2     1  UNL11       0.2141
      3 O          -8.1477   -0.9882    1.7002 O.2     1  UNL11      -0.2758
      4 N          -6.3467   -0.7347    0.2706 N.am    1  UNL11      -0.2857
      5 C          -4.9821   -0.4471    0.0025 C.ar    1  UNL11       0.0334
      6 C          -4.0352   -0.1047    0.9194 C.ar    1  UNL11      -0.0399
      7 C          -2.6976    0.1740    0.5698 C.ar    1  UNL11      -0.0508
      8 C          -2.2858    0.1116   -0.7252 C.ar    1  UNL11       0.0006
      9 C          -0.9014    0.3908   -1.1618 C.ar    1  UNL11       0.0760
     10 C          -0.6688    0.9143   -2.4058 C.ar    1  UNL11      -0.0174
     11 C           0.6478    1.1772   -2.8145 C.ar    1  UNL11       0.0332
     12 N           1.6090    0.8956   -1.9499 N.ar    1  UNL11      -0.2226
     13 C           1.4165    0.3820   -0.7229 C.ar    1  UNL11       0.2200
     14 N           2.4319    0.0796    0.2029 N.pl3   1  UNL11      -0.2836
     15 C           2.3596    0.1073    1.6139 C.ar    1  UNL11       0.0343
     16 C           1.2219    0.4517    2.2989 C.ar    1  UNL11      -0.0404
     17 C           1.1855    0.4685    3.6807 C.ar    1  UNL11      -0.0593
     18 C           2.3101    0.1340    4.3879 C.ar    1  UNL11      -0.0495
     19 C           3.4904   -0.2230    3.7455 C.ar    1  UNL11       0.0382
     20 C           4.6884   -0.5793    4.4867 C.2     1  UNL11       0.2416
     21 N           5.9841   -0.3350    3.9663 N.am    1  UNL11      -0.3253
     22 O           4.5934   -1.1169    5.6158 O.2     1  UNL11      -0.2704
     23 C           3.4878   -0.2280    2.3800 C.ar    1  UNL11      -0.0284
     24 N           0.1252    0.1313   -0.3396 N.ar    1  UNL11      -0.2142
     25 C          -3.2394   -0.2376   -1.6815 C.ar    1  UNL11      -0.0508
     26 C          -4.5355   -0.5057   -1.3276 C.ar    1  UNL11      -0.0399
     27 H          -5.2643    0.2994    2.3818 H       1  UNL11       0.0323
     28 H          -6.7377    0.3072    3.3803 H       1  UNL11       0.0323
     29 H          -5.7429   -1.2436    3.2494 H       1  UNL11       0.0323
     30 H          -6.9960   -0.9949   -0.5461 H       1  UNL11       0.1548
     31 H          -4.2885   -0.0397    1.9640 H       1  UNL11       0.0636
     32 H          -1.9927    0.4415    1.3514 H       1  UNL11       0.0625
     33 H          -1.4628    1.1450   -3.1156 H       1  UNL11       0.0654
     34 H           0.7885    1.5888   -3.8005 H       1  UNL11       0.0831
     35 H           3.3712   -0.2054   -0.2003 H       1  UNL11       0.1550
     36 H           0.2999    0.7263    1.8064 H       1  UNL11       0.0636
     37 H           0.2797    0.7427    4.2335 H       1  UNL11       0.0618
     38 H           2.3071    0.1395    5.4708 H       1  UNL11       0.0625
     39 H           6.1360   -0.4539    2.9433 H       1  UNL11       0.1453
     40 H           6.7626   -0.0447    4.5904 H       1  UNL11       0.1453
     41 H           4.3735   -0.4962    1.8364 H       1  UNL11       0.0644
     42 H          -2.8847   -0.2800   -2.7068 H       1  UNL11       0.0625
     43 H          -5.2607   -0.7767   -2.0987 H       1  UNL11       0.0636
@<TRIPOS>BOND
     1     1     2    1
     2     1    27    1
     3     1    28    1
     4     1    29    1
     5     2     3    2
     6     2     4   am
     7     4     5    1
     8     4    30    1
     9     5     6   ar
    10     6     7   ar
    11     6    31    1
    12     7     8   ar
    13     7    32    1
    14     8     9    1
    15     8    25   ar
    16     9    10   ar
    17    10    11   ar
    18    10    33    1
    19    11    12   ar
    20    11    34    1
    21    12    13   ar
    22    13    14    1
    23    13    24   ar
    24    14    15    1
    25    14    35    1
    26    15    16   ar
    27    16    17   ar
    28    16    36    1
    29    17    18   ar
    30    17    37    1
    31    18    19   ar
    32    18    38    1
    33    19    20    1
    34    19    23   ar
    35    20    21   am
    36    20    22    2
    37    21    39    1
    38    21    40    1
    39    23    15   ar
    40    23    41    1
    41    24     9   ar
    42    25    26   ar
    43    25    42    1
    44    26     5   ar
    45    26    43    1
@<TRIPOS>MOLECULE
*****
 43 45 0 0 0
SMALL
GASTEIGER

@<TRIPOS>ATOM
      1 C          -6.8125   -2.0825   -1.4916 C.3     1  UNL11       0.0125
      2 C          -7.2800   -1.2753   -0.2980 C.2     1  UNL11       0.2141
      3 O          -8.4781   -1.3512    0.0365 O.2     1  UNL11      -0.2758
      4 N          -6.3629   -0.4805    0.3819 N.am    1  UNL11      -0.2857
      5 C          -4.9902   -0.3361    0.0479 C.ar    1  UNL11       0.0334
      6 C          -3.9621   -1.0957    0.5176 C.ar    1  UNL11      -0.0399
      7 C          -2.6197   -0.8825    0.1413 C.ar    1  UNL11      -0.0508
      8 C          -2.2858    0.1116   -0.7252 C.ar    1  UNL11       0.0006
      9 C          -0.9014    0.3908   -1.1618 C.ar    1  UNL11       0.0760
     10 C          -0.6688    0.9143   -2.4058 C.ar    1  UNL11      -0.0174
     11 C           0.6478    1.1772   -2.8145 C.ar    1  UNL11       0.0332
     12 N           1.6090    0.8956   -1.9499 N.ar    1  UNL11      -0.2226
     13 C           1.4165    0.3820   -0.7229 C.ar    1  UNL11       0.2200
     14 N           2.4319    0.0796    0.2029 N.pl3   1  UNL11      -0.2836
     15 C           2.2941   -0.4734    1.4961 C.ar    1  UNL11       0.0343
     16 C           3.3603   -0.7140    2.3251 C.ar    1  UNL11      -0.0404
     17 C           3.1900   -1.2564    3.5852 C.ar    1  UNL11      -0.0593
     18 C           1.9281   -1.5630    4.0212 C.ar    1  UNL11      -0.0495
     19 C           0.8117   -1.3402    3.2230 C.ar    1  UNL11       0.0382
     20 C          -0.5308   -1.6620    3.6765 C.2     1  UNL11       0.2416
     21 N          -1.5495   -2.0462    2.7687 N.am    1  UNL11      -0.3253
     22 O          -0.8137   -1.6042    4.8970 O.2     1  UNL11      -0.2704
     23 C           1.0196   -0.8033    1.9849 C.ar    1  UNL11      -0.0284
     24 N           0.1252    0.1313   -0.3396 N.ar    1  UNL11      -0.2142
     25 C          -3.3234    0.9022   -1.2192 C.ar    1  UNL11      -0.0508
     26 C          -4.6232    0.6838   -0.8450 C.ar    1  UNL11      -0.0399
     27 H          -5.7192   -2.2766   -1.3666 H       1  UNL11       0.0323
     28 H          -7.3087   -3.0751   -1.4296 H       1  UNL11       0.0323
     29 H          -7.0233   -1.5501   -2.4317 H       1  UNL11       0.0323
     30 H          -6.7546    0.0586    1.2259 H       1  UNL11       0.1548
     31 H          -4.1523   -1.9033    1.2039 H       1  UNL11       0.0636
     32 H          -1.8476   -1.5253    0.5537 H       1  UNL11       0.0625
     33 H          -1.4628    1.1450   -3.1156 H       1  UNL11       0.0654
     34 H           0.7885    1.5888   -3.8005 H       1  UNL11       0.0831
     35 H           3.4270    0.2899   -0.0998 H       1  UNL11       0.1550
     36 H           4.3818   -0.4970    2.0469 H       1  UNL11       0.0636
     37 H           4.0378   -1.4509    4.2521 H       1  UNL11       0.0618
     38 H           1.7684   -1.9888    5.0041 H       1  UNL11       0.0625
     39 H          -1.5773   -1.5874    1.8345 H       1  UNL11       0.1453
     40 H          -2.2508   -2.7673    3.0292 H       1  UNL11       0.1453
     41 H           0.1911   -0.6118    1.3300 H       1  UNL11       0.0644
     42 H          -3.0298    1.6880   -1.9085 H       1  UNL11       0.0625
     43 H          -5.4152    1.3193   -1.2484 H       1  UNL11       0.0636
@<TRIPOS>BOND
     1     1     2    1
     2     1    27    1
     3     1    28    1
     4     1    29    1
     5     2     3    2
     6     2     4   am
     7     4     5    1
     8     4    30    1
     9     5     6   ar
    10     6     7   ar
    11     6    31    1
    12     7     8   ar
    13     7    32    1
    14     8     9    1
    15     8    25   ar
    16     9    10   ar
    17    10    11   ar
    18    10    33    1
    19    11    12   ar
    20    11    34    1
    21    12    13   ar
    22    13    14    1
    23    13    24   ar
    24    14    15    1
    25    14    35    1
    26    15    16   ar
    27    16    17   ar
    28    16    36    1
    29    17    18   ar
    30    17    37    1
    31    18    19   ar
    32    18    38    1
    33    19    20    1
    34    19    23   ar
    35    20    21   am
    36    20    22    2
    37    21    39    1
    38    21    40    1
    39    23    15   ar
    40    23    41    1
    41    24     9   ar
    42    25    26   ar
    43    25    42    1
    44    26     5   ar
    45    26    43    1
@<TRIPOS>MOLECULE
*****
 43 45 0 0 0
SMALL
GASTEIGER

@<TRIPOS>ATOM
      1 C          -7.1878    1.1104   -1.2015 C.3     1  UNL11       0.0125
      2 C          -7.4351   -0.0433   -0.2514 C.2     1  UNL11       0.2141
      3 O          -8.6129   -0.3359    0.0321 O.2     1  UNL11      -0.2758
      4 N          -6.3467   -0.7347    0.2706 N.am    1  UNL11      -0.2857
      5 C          -4.9821   -0.4471    0.0025 C.ar    1  UNL11       0.0334
      6 C          -4.0352   -0.1047    0.9194 C.ar    1  UNL11      -0.0399
      7 C          -2.6976    0.1740    0.5698 C.ar    1  UNL11      -0.0508
      8 C          -2.2858    0.1116   -0.7252 C.ar    1  UNL11       0.0006
      9 C          -0.9014    0.3908   -1.1618 C.ar    1  UNL11       0.0760
     10 C          -0.6688    0.9143   -2.4058 C.ar    1  UNL11      -0.0174
     11 C           0.6478    1.1772   -2.8145 C.ar    1  UNL11       0.0332
     12 N           1.6090    0.8956   -1.9499 N.ar    1  UNL11      -0.2226
     13 C           1.4165    0.3820   -0.7229 C.ar    1  UNL11       0.2200
     14 N           2.4319    0.0796    0.2029 N.pl3   1  UNL11      -0.2836
     15 C           2.3596    0.1073    1.6139 C.ar    1  UNL11       0.0343
     16 C           3.1029   -0.7189    2.4182 C.ar    1  UNL11      -0.0404
     17 C           3.0078   -0.6655    3.7964 C.ar    1  UNL11      -0.0593
     18 C           2.1519    0.2323    4.3778 C.ar    1  UNL11      -0.0495
     19 C           1.3748    1.0934    3.6113 C.ar    1  UNL11       0.0382
     20 C           0.4641    2.0490    4.2186 C.2     1  UNL11       0.2416
     21 N          -0.7271    2.4572    3.5676 N.am    1  UNL11      -0.3253
     22 O           0.7216    2.5351    5.3457 O.2     1  UNL11      -0.2704
     23 C           1.4960    1.0113    2.2536 C.ar    1  UNL11      -0.0284
     24 N           0.1252    0.1313   -0.3396 N.ar    1  UNL11      -0.2142
     25 C          -3.2394   -0.2376   -1.6815 C.ar    1  UNL11      -0.0508
     26 C          -4.5355   -0.5057   -1.3276 C.ar    1  UNL11      -0.0399
     27 H          -6.2007    0.9405   -1.6967 H       1  UNL11       0.0323
     28 H          -7.9505    1.0399   -2.0068 H       1  UNL11       0.0323
     29 H          -7.2106    2.0715   -0.6653 H       1  UNL11       0.0323
     30 H          -6.5892   -1.5491    0.9296 H       1  UNL11       0.1548
     31 H          -4.2885   -0.0397    1.9640 H       1  UNL11       0.0636
     32 H          -1.9927    0.4415    1.3514 H       1  UNL11       0.0625
     33 H          -1.4628    1.1450   -3.1156 H       1  UNL11       0.0654
     34 H           0.7885    1.5888   -3.8005 H       1  UNL11       0.0831
     35 H           3.3712   -0.2054   -0.2003 H       1  UNL11       0.1550
     36 H           3.7970   -1.4498    2.0284 H       1  UNL11       0.0636
     37 H           3.5990   -1.3229    4.4441 H       1  UNL11       0.0618
     38 H           2.0593    0.2935    5.4551 H       1  UNL11       0.0625
     39 H          -0.7100    2.5724    2.5330 H       1  UNL11       0.1453
     40 H          -1.5953    2.6372    4.1094 H       1  UNL11       0.1453
     41 H           0.9182    1.6539    1.6171 H       1  UNL11       0.0644
     42 H          -2.8847   -0.2800   -2.7068 H       1  UNL11       0.0625
     43 H          -5.2607   -0.7767   -2.0987 H       1  UNL11       0.0636
@<TRIPOS>BOND
     1     1     2    1
     2     1    27    1
     3     1    28    1
     4     1    29    1
     5     2     3    2
     6     2     4   am
     7     4     5    1
     8     4    30    1
     9     5     6   ar
    10     6     7   ar
    11     6    31    1
    12     7     8   ar
    13     7    32    1
    14     8     9    1
    15     8    25   ar
    16     9    10   ar
    17    10    11   ar
    18    10    33    1
    19    11    12   ar
    20    11    34    1
    21    12    13   ar
    22    13    14    1
    23    13    24   ar
    24    14    15    1
    25    14    35    1
    26    15    16   ar
    27    16    17   ar
    28    16    36    1
    29    17    18   ar
    30    17    37    1
    31    18    19   ar
    32    18    38    1
    33    19    20    1
    34    19    23   ar
    35    20    21   am
    36    20    22    2
    37    21    39    1
    38    21    40    1
    39    23    15   ar
    40    23    41    1
    41    24     9   ar
    42    25    26   ar
    43    25    42    1
    44    26     5   ar
    45    26    43    1
@<TRIPOS>MOLECULE
*****
 43 45 0 0 0
SMALL
GASTEIGER

@<TRIPOS>ATOM
      1 C          -7.0512    1.5468    0.5449 C.3     1  UNL11       0.0125
      2 C          -7.2281    0.1010    0.9610 C.2     1  UNL11       0.2141
      3 O          -8.3159   -0.2427    1.4628 O.2     1  UNL11      -0.2758
      4 N          -6.1776   -0.7908    0.7708 N.am    1  UNL11      -0.2857
      5 C          -4.9099   -0.4655    0.2197 C.ar    1  UNL11       0.0334
      6 C          -4.6781    0.0537   -1.0178 C.ar    1  UNL11      -0.0399
      7 C          -3.3830    0.3430   -1.4953 C.ar    1  UNL11      -0.0508
      8 C          -2.2858    0.1116   -0.7252 C.ar    1  UNL11       0.0006
      9 C          -0.9014    0.3908   -1.1618 C.ar    1  UNL11       0.0760
     10 C          -0.6688    0.9143   -2.4058 C.ar    1  UNL11      -0.0174
     11 C           0.6478    1.1772   -2.8145 C.ar    1  UNL11       0.0332
     12 N           1.6090    0.8956   -1.9499 N.ar    1  UNL11      -0.2226
     13 C           1.4165    0.3820   -0.7229 C.ar    1  UNL11       0.2200
     14 N           2.4319    0.0796    0.2029 N.pl3   1  UNL11      -0.2836
     15 C           3.6887    0.7083    0.3526 C.ar    1  UNL11       0.0343
     16 C           3.9060    2.0289    0.0513 C.ar    1  UNL11      -0.0404
     17 C           5.1490    2.6129    0.2095 C.ar    1  UNL11      -0.0593
     18 C           6.1923    1.8588    0.6781 C.ar    1  UNL11      -0.0495
     19 C           6.0288    0.5159    0.9991 C.ar    1  UNL11       0.0382
     20 C           7.1292   -0.2922    1.4967 C.2     1  UNL11       0.2416
     21 N           8.4263    0.2500    1.6782 N.am    1  UNL11      -0.3253
     22 O           6.9458   -1.5006    1.7779 O.2     1  UNL11      -0.2704
     23 C           4.7868   -0.0257    0.8296 C.ar    1  UNL11      -0.0284
     24 N           0.1252    0.1313   -0.3396 N.ar    1  UNL11      -0.2142
     25 C          -2.4999   -0.4200    0.5465 C.ar    1  UNL11      -0.0508
     26 C          -3.7637   -0.6963    0.9976 C.ar    1  UNL11      -0.0399
     27 H          -6.2830    1.5782   -0.2658 H       1  UNL11       0.0323
     28 H          -8.0051    1.8710    0.0755 H       1  UNL11       0.0323
     29 H          -6.7572    2.1688    1.4042 H       1  UNL11       0.0323
     30 H          -6.3700   -1.8037    1.0765 H       1  UNL11       0.1548
     31 H          -5.4996    0.2665   -1.6806 H       1  UNL11       0.0636
     32 H          -3.2686    0.7561   -2.4931 H       1  UNL11       0.0625
     33 H          -1.4628    1.1450   -3.1156 H       1  UNL11       0.0654
     34 H           0.7885    1.5888   -3.8005 H       1  UNL11       0.0831
     35 H           2.2377   -0.7179    0.8755 H       1  UNL11       0.1550
     36 H           3.1300    2.6819   -0.3220 H       1  UNL11       0.0636
     37 H           5.3287    3.6673   -0.0294 H       1  UNL11       0.0618
     38 H           7.1755    2.2929    0.8107 H       1  UNL11       0.0625
     39 H           8.7684    0.9531    0.9908 H       1  UNL11       0.1453
     40 H           9.0207   -0.0471    2.4770 H       1  UNL11       0.1453
     41 H           4.6081   -1.0579    1.0629 H       1  UNL11       0.0644
     42 H          -1.6079   -0.5951    1.1402 H       1  UNL11       0.0625
     43 H          -3.9008   -1.1125    1.9986 H       1  UNL11       0.0636
@<TRIPOS>BOND
     1     1     2    1
     2     1    27    1
     3     1    28    1
     4     1    29    1
     5     2     3    2
     6     2     4   am
     7     4     5    1
     8     4    30    1
     9     5     6   ar
    10     6     7   ar
    11     6    31    1
    12     7     8   ar
    13     7    32    1
    14     8     9    1
    15     8    25   ar
    16     9    10   ar
    17    10    11   ar
    18    10    33    1
    19    11    12   ar
    20    11    34    1
    21    12    13   ar
    22    13    14    1
    23    13    24   ar
    24    14    15    1
    25    14    35    1
    26    15    16   ar
    27    16    17   ar
    28    16    36    1
    29    17    18   ar
    30    17    37    1
    31    18    19   ar
    32    18    38    1
    33    19    20    1
    34    19    23   ar
    35    20    21   am
    36    20    22    2
    37    21    39    1
    38    21    40    1
    39    23    15   ar
    40    23    41    1
    41    24     9   ar
    42    25    26   ar
    43    25    42    1
    44    26     5   ar
    45    26    43    1
@<TRIPOS>MOLECULE
*****
 43 45 0 0 0
SMALL
GASTEIGER

@<TRIPOS>ATOM
      1 C          -5.5591   -0.4386    3.0674 C.3     1  UNL11       0.0125
      2 C          -6.5565   -0.9003    2.0248 C.2     1  UNL11       0.2141
      3 O          -7.6858   -1.2650    2.4053 O.2     1  UNL11      -0.2758
      4 N          -6.1822   -0.9024    0.6851 N.am    1  UNL11      -0.2857
      5 C          -4.9113   -0.5147    0.1838 C.ar    1  UNL11       0.0334
      6 C          -4.6661    0.4928   -0.6991 C.ar    1  UNL11      -0.0399
      7 C          -3.3702    0.8111   -1.1555 C.ar    1  UNL11      -0.0508
      8 C          -2.2858    0.1116   -0.7252 C.ar    1  UNL11       0.0006
      9 C          -0.9014    0.3908   -1.1618 C.ar    1  UNL11       0.0760
     10 C          -0.6688    0.9143   -2.4058 C.ar    1  UNL11      -0.0174
     11 C           0.6478    1.1772   -2.8145 C.ar    1  UNL11       0.0332
     12 N           1.6090    0.8956   -1.9499 N.ar    1  UNL11      -0.2226
     13 C           1.4165    0.3820   -0.7229 C.ar    1  UNL11       0.2200
     14 N           2.4319    0.0796    0.2029 N.pl3   1  UNL11      -0.2836
     15 C           2.3596    0.1073    1.6139 C.ar    1  UNL11       0.0343
     16 C           1.2219    0.4517    2.2989 C.ar    1  UNL11      -0.0404
     17 C           1.1855    0.4685    3.6807 C.ar    1  UNL11      -0.0593
     18 C           2.3101    0.1340    4.3879 C.ar    1  UNL11      -0.0495
     19 C           3.4904   -0.2230    3.7455 C.ar    1  UNL11       0.0382
     20 C           4.6884   -0.5793    4.4867 C.2     1  UNL11       0.2416
     21 N           4.6176   -1.1746    5.7712 N.am    1  UNL11      -0.3253
     22 O           5.8211   -0.3626    3.9940 O.2     1  UNL11      -0.2704
     23 C           3.4878   -0.2280    2.3800 C.ar    1  UNL11      -0.0284
     24 N           0.1252    0.1313   -0.3396 N.ar    1  UNL11      -0.2142
     25 C          -2.5137   -0.9250    0.1800 C.ar    1  UNL11      -0.0508
     26 C          -3.7781   -1.2233    0.6149 C.ar    1  UNL11      -0.0399
     27 H          -4.8423    0.2594    2.5700 H       1  UNL11       0.0323
     28 H          -6.1191    0.1735    3.8070 H       1  UNL11       0.0323
     29 H          -5.0391   -1.2969    3.5196 H       1  UNL11       0.0323
     30 H          -6.9382   -1.2305   -0.0056 H       1  UNL11       0.1548
     31 H          -5.4763    1.0916   -1.0791 H       1  UNL11       0.0636
     32 H          -3.2448    1.6275   -1.8606 H       1  UNL11       0.0625
     33 H          -1.4628    1.1450   -3.1156 H       1  UNL11       0.0654
     34 H           0.7885    1.5888   -3.8005 H       1  UNL11       0.0831
     35 H           3.3712   -0.2054   -0.2003 H       1  UNL11       0.1550
     36 H           0.2999    0.7263    1.8064 H       1  UNL11       0.0636
     37 H           0.2797    0.7427    4.2335 H       1  UNL11       0.0618
     38 H           2.3071    0.1395    5.4708 H       1  UNL11       0.0625
     39 H           3.8638   -0.8642    6.4187 H       1  UNL11       0.1453
     40 H           5.3011   -1.9024    6.0593 H       1  UNL11       0.1453
     41 H           4.3735   -0.4962    1.8364 H       1  UNL11       0.0644
     42 H          -1.6317   -1.4671    0.5072 H       1  UNL11       0.0625
     43 H          -3.9262   -2.0411    1.3244 H       1  UNL11       0.0636
@<TRIPOS>BOND
     1     1     2    1
     2     1    27    1
     3     1    28    1
     4     1    29    1
     5     2     3    2
     6     2     4   am
     7     4     5    1
     8     4    30    1
     9     5     6   ar
    10     6     7   ar
    11     6    31    1
    12     7     8   ar
    13     7    32    1
    14     8     9    1
    15     8    25   ar
    16     9    10   ar
    17    10    11   ar
    18    10    33    1
    19    11    12   ar
    20    11    34    1
    21    12    13   ar
    22    13    14    1
    23    13    24   ar
    24    14    15    1
    25    14    35    1
    26    15    16   ar
    27    16    17   ar
    28    16    36    1
    29    17    18   ar
    30    17    37    1
    31    18    19   ar
    32    18    38    1
    33    19    20    1
    34    19    23   ar
    35    20    21   am
    36    20    22    2
    37    21    39    1
    38    21    40    1
    39    23    15   ar
    40    23    41    1
    41    24     9   ar
    42    25    26   ar
    43    25    42    1
    44    26     5   ar
    45    26    43    1
@<TRIPOS>MOLECULE
*****
 43 45 0 0 0
SMALL
GASTEIGER

@<TRIPOS>ATOM
      1 C          -7.9078   -1.7700    2.2462 C.3     1  UNL11       0.0125
      2 C          -6.4868   -1.6323    1.7393 C.2     1  UNL11       0.2141
      3 O          -5.6193   -2.4056    2.1894 O.2     1  UNL11      -0.2758
      4 N          -6.1980   -0.6535    0.7940 N.am    1  UNL11      -0.2857
      5 C          -4.9192   -0.4060    0.2282 C.ar    1  UNL11       0.0334
      6 C          -4.5946   -0.4773   -1.0924 C.ar    1  UNL11      -0.0399
      7 C          -3.2940   -0.2230   -1.5750 C.ar    1  UNL11      -0.0508
      8 C          -2.2858    0.1116   -0.7252 C.ar    1  UNL11       0.0006
      9 C          -0.9014    0.3908   -1.1618 C.ar    1  UNL11       0.0760
     10 C          -0.6688    0.9143   -2.4058 C.ar    1  UNL11      -0.0174
     11 C           0.6478    1.1772   -2.8145 C.ar    1  UNL11       0.0332
     12 N           1.6090    0.8956   -1.9499 N.ar    1  UNL11      -0.2226
     13 C           1.4165    0.3820   -0.7229 C.ar    1  UNL11       0.2200
     14 N           2.4319    0.0796    0.2029 N.pl3   1  UNL11      -0.2836
     15 C           2.4369   -0.9320    1.1897 C.ar    1  UNL11       0.0343
     16 C           3.1076   -0.8132    2.3805 C.ar    1  UNL11      -0.0404
     17 C           3.0916   -1.8229    3.3247 C.ar    1  UNL11      -0.0593
     18 C           2.3907   -2.9719    3.0696 C.ar    1  UNL11      -0.0495
     19 C           1.6930   -3.1460    1.8797 C.ar    1  UNL11       0.0382
     20 C           0.9467   -4.3610    1.6000 C.2     1  UNL11       0.2416
     21 N           0.7771   -4.8407    0.2769 N.am    1  UNL11      -0.3253
     22 O           0.4331   -5.0145    2.5391 O.2     1  UNL11      -0.2704
     23 C           1.7322   -2.1270    0.9716 C.ar    1  UNL11      -0.0284
     24 N           0.1252    0.1313   -0.3396 N.ar    1  UNL11      -0.2142
     25 C          -2.5960    0.1907    0.6325 C.ar    1  UNL11      -0.0508
     26 C          -3.8640   -0.0590    1.0873 C.ar    1  UNL11      -0.0399
     27 H          -8.5929   -1.3782    1.4553 H       1  UNL11       0.0323
     28 H          -8.1225   -2.8576    2.3259 H       1  UNL11       0.0323
     29 H          -8.0387   -1.2311    3.1971 H       1  UNL11       0.0323
     30 H          -7.0322   -0.0499    0.4839 H       1  UNL11       0.1548
     31 H          -5.3431   -0.7326   -1.8232 H       1  UNL11       0.0636
     32 H          -3.1028   -0.2977   -2.6414 H       1  UNL11       0.0625
     33 H          -1.4628    1.1450   -3.1156 H       1  UNL11       0.0654
     34 H           0.7885    1.5888   -3.8005 H       1  UNL11       0.0831
     35 H           3.3053    0.6810    0.1615 H       1  UNL11       0.1550
     36 H           3.6798    0.0638    2.6477 H       1  UNL11       0.0636
     37 H           3.6254   -1.7338    4.2778 H       1  UNL11       0.0618
     38 H           2.3627   -3.7773    3.7930 H       1  UNL11       0.0625
     39 H           0.6479   -4.1460   -0.4876 H       1  UNL11       0.1453
     40 H           0.7814   -5.8601    0.0753 H       1  UNL11       0.1453
     41 H           1.2104   -2.2117    0.0375 H       1  UNL11       0.0644
     42 H          -1.7738    0.4594    1.2887 H       1  UNL11       0.0625
     43 H          -4.0775    0.0106    2.1567 H       1  UNL11       0.0636
@<TRIPOS>BOND
     1     1     2    1
     2     1    27    1
     3     1    28    1
     4     1    29    1
     5     2     3    2
     6     2     4   am
     7     4     5    1
     8     4    30    1
     9     5     6   ar
    10     6     7   ar
    11     6    31    1
    12     7     8   ar
    13     7    32    1
    14     8     9    1
    15     8    25   ar
    16     9    10   ar
    17    10    11   ar
    18    10    33    1
    19    11    12   ar
    20    11    34    1
    21    12    13   ar
    22    13    14    1
    23    13    24   ar
    24    14    15    1
    25    14    35    1
    26    15    16   ar
    27    16    17   ar
    28    16    36    1
    29    17    18   ar
    30    17    37    1
    31    18    19   ar
    32    18    38    1
    33    19    20    1
    34    19    23   ar
    35    20    21   am
    36    20    22    2
    37    21    39    1
    38    21    40    1
    39    23    15   ar
    40    23    41    1
    41    24     9   ar
    42    25    26   ar
    43    25    42    1
    44    26     5   ar
    45    26    43    1
@<TRIPOS>MOLECULE
*****
 43 45 0 0 0
SMALL
GASTEIGER

@<TRIPOS>ATOM
      1 C          -6.1956   -3.0674   -0.6319 C.3     1  UNL11       0.0125
      2 C          -6.9877   -1.9379   -0.0059 C.2     1  UNL11       0.2141
      3 O          -8.1944   -2.1263    0.2418 O.2     1  UNL11      -0.2758
      4 N          -6.3467   -0.7347    0.2706 N.am    1  UNL11      -0.2857
      5 C          -4.9821   -0.4471    0.0025 C.ar    1  UNL11       0.0334
      6 C          -4.0352   -0.1047    0.9194 C.ar    1  UNL11      -0.0399
      7 C          -2.6976    0.1740    0.5698 C.ar    1  UNL11      -0.0508
      8 C          -2.2858    0.1116   -0.7252 C.ar    1  UNL11       0.0006
      9 C          -0.9014    0.3908   -1.1618 C.ar    1  UNL11       0.0760
     10 C          -0.6688    0.9143   -2.4058 C.ar    1  UNL11      -0.0174
     11 C           0.6478    1.1772   -2.8145 C.ar    1  UNL11       0.0332
     12 N           1.6090    0.8956   -1.9499 N.ar    1  UNL11      -0.2226
     13 C           1.4165    0.3820   -0.7229 C.ar    1  UNL11       0.2200
     14 N           2.4319    0.0796    0.2029 N.pl3   1  UNL11      -0.2836
     15 C           3.8269    0.2459    0.0499 C.ar    1  UNL11       0.0343
     16 C           4.6696    0.5071    1.1004 C.ar    1  UNL11      -0.0404
     17 C           6.0306    0.6643    0.9155 C.ar    1  UNL11      -0.0593
     18 C           6.5553    0.5576   -0.3455 C.ar    1  UNL11      -0.0495
     19 C           5.7480    0.2940   -1.4463 C.ar    1  UNL11       0.0382
     20 C           6.2951    0.1790   -2.7875 C.2     1  UNL11       0.2416
     21 N           5.5384    0.5363   -3.9317 N.am    1  UNL11      -0.3253
     22 O           7.4634   -0.2445   -2.9565 O.2     1  UNL11      -0.2704
     23 C           4.4089    0.1450   -1.2242 C.ar    1  UNL11      -0.0284
     24 N           0.1252    0.1313   -0.3396 N.ar    1  UNL11      -0.2142
     25 C          -3.2394   -0.2376   -1.6815 C.ar    1  UNL11      -0.0508
     26 C          -4.5355   -0.5057   -1.3276 C.ar    1  UNL11      -0.0399
     27 H          -5.1222   -2.9271   -0.3552 H       1  UNL11       0.0323
     28 H          -6.5193   -4.0078   -0.1357 H       1  UNL11       0.0323
     29 H          -6.3324   -3.0837   -1.7240 H       1  UNL11       0.0323
     30 H          -6.9608    0.0226    0.7243 H       1  UNL11       0.1548
     31 H          -4.2885   -0.0397    1.9640 H       1  UNL11       0.0636
     32 H          -1.9927    0.4415    1.3514 H       1  UNL11       0.0625
     33 H          -1.4628    1.1450   -3.1156 H       1  UNL11       0.0654
     34 H           0.7885    1.5888   -3.8005 H       1  UNL11       0.0831
     35 H           2.1198   -0.3235    1.1336 H       1  UNL11       0.1550
     36 H           4.3250    0.6041    2.1201 H       1  UNL11       0.0636
     37 H           6.7088    0.8731    1.7507 H       1  UNL11       0.0618
     38 H           7.6180    0.6766   -0.5164 H       1  UNL11       0.0625
     39 H           4.5176    0.3315   -3.9325 H       1  UNL11       0.1453
     40 H           5.9912    0.9909   -4.7490 H       1  UNL11       0.1453
     41 H           3.7426   -0.0595   -2.0403 H       1  UNL11       0.0644
     42 H          -2.8847   -0.2800   -2.7068 H       1  UNL11       0.0625
     43 H          -5.2607   -0.7767   -2.0987 H       1  UNL11       0.0636
@<TRIPOS>BOND
     1     1     2    1
     2     1    27    1
     3     1    28    1
     4     1    29    1
     5     2     3    2
     6     2     4   am
     7     4     5    1
     8     4    30    1
     9     5     6   ar
    10     6     7   ar
    11     6    31    1
    12     7     8   ar
    13     7    32    1
    14     8     9    1
    15     8    25   ar
    16     9    10   ar
    17    10    11   ar
    18    10    33    1
    19    11    12   ar
    20    11    34    1
    21    12    13   ar
    22    13    14    1
    23    13    24   ar
    24    14    15    1
    25    14    35    1
    26    15    16   ar
    27    16    17   ar
    28    16    36    1
    29    17    18   ar
    30    17    37    1
    31    18    19   ar
    32    18    38    1
    33    19    20    1
    34    19    23   ar
    35    20    21   am
    36    20    22    2
    37    21    39    1
    38    21    40    1
    39    23    15   ar
    40    23    41    1
    41    24     9   ar
    42    25    26   ar
    43    25    42    1
    44    26     5   ar
    45    26    43    1
@<TRIPOS>MOLECULE
*****
 43 45 0 0 0
SMALL
GASTEIGER

@<TRIPOS>ATOM
      1 C          -6.9945   -1.9654   -1.1868 C.3     1  UNL11       0.0125
      2 C          -7.2244   -1.3699    0.1870 C.2     1  UNL11       0.2141
      3 O          -8.3325   -1.5431    0.7304 O.2     1  UNL11      -0.2758
      4 N          -6.1980   -0.6535    0.7940 N.am    1  UNL11      -0.2857
      5 C          -4.9192   -0.4060    0.2282 C.ar    1  UNL11       0.0334
      6 C          -4.5946   -0.4773   -1.0924 C.ar    1  UNL11      -0.0399
      7 C          -3.2940   -0.2230   -1.5750 C.ar    1  UNL11      -0.0508
      8 C          -2.2858    0.1116   -0.7252 C.ar    1  UNL11       0.0006
      9 C          -0.9014    0.3908   -1.1618 C.ar    1  UNL11       0.0760
     10 C          -0.6688    0.9143   -2.4058 C.ar    1  UNL11      -0.0174
     11 C           0.6478    1.1772   -2.8145 C.ar    1  UNL11       0.0332
     12 N           1.6090    0.8956   -1.9499 N.ar    1  UNL11      -0.2226
     13 C           1.4165    0.3820   -0.7229 C.ar    1  UNL11       0.2200
     14 N           2.4319    0.0796    0.2029 N.pl3   1  UNL11      -0.2836
     15 C           2.3596    0.1073    1.6139 C.ar    1  UNL11       0.0343
     16 C           1.5293    0.9531    2.3048 C.ar    1  UNL11      -0.0404
     17 C           1.4833    0.9542    3.6865 C.ar    1  UNL11      -0.0593
     18 C           2.2844    0.0918    4.3874 C.ar    1  UNL11      -0.0495
     19 C           3.1447   -0.7869    3.7389 C.ar    1  UNL11       0.0382
     20 C           3.9982   -1.7054    4.4734 C.2     1  UNL11       0.2416
     21 N           5.2539   -2.1213    3.9640 N.am    1  UNL11      -0.3253
     22 O           3.6317   -2.1513    5.5868 O.2     1  UNL11      -0.2704
     23 C           3.1624   -0.7590    2.3738 C.ar    1  UNL11      -0.0284
     24 N           0.1252    0.1313   -0.3396 N.ar    1  UNL11      -0.2142
     25 C          -2.5960    0.1907    0.6325 C.ar    1  UNL11      -0.0508
     26 C          -3.8640   -0.0590    1.0873 C.ar    1  UNL11      -0.0399
     27 H          -5.8965   -2.1334   -1.3077 H       1  UNL11       0.0323
     28 H          -7.4606   -2.9744   -1.1879 H       1  UNL11       0.0323
     29 H          -7.3907   -1.3036   -1.9722 H       1  UNL11       0.0323
     30 H          -6.4203   -0.2662    1.7722 H       1  UNL11       0.1548
     31 H          -5.3431   -0.7326   -1.8232 H       1  UNL11       0.0636
     32 H          -3.1028   -0.2977   -2.6414 H       1  UNL11       0.0625
     33 H          -1.4628    1.1450   -3.1156 H       1  UNL11       0.0654
     34 H           0.7885    1.5888   -3.8005 H       1  UNL11       0.0831
     35 H           3.3712   -0.2054   -0.2003 H       1  UNL11       0.1550
     36 H           0.8714    1.6584    1.8174 H       1  UNL11       0.0636
     37 H           0.8221    1.6275    4.2439 H       1  UNL11       0.0618
     38 H           2.2667    0.0735    5.4700 H       1  UNL11       0.0625
     39 H           5.3441   -2.2764    2.9385 H       1  UNL11       0.1453
     40 H           6.0639   -2.2678    4.5982 H       1  UNL11       0.1453
     41 H           3.8089   -1.4172    1.8255 H       1  UNL11       0.0644
     42 H          -1.7738    0.4594    1.2887 H       1  UNL11       0.0625
     43 H          -4.0775    0.0106    2.1567 H       1  UNL11       0.0636
@<TRIPOS>BOND
     1     1     2    1
     2     1    27    1
     3     1    28    1
     4     1    29    1
     5     2     3    2
     6     2     4   am
     7     4     5    1
     8     4    30    1
     9     5     6   ar
    10     6     7   ar
    11     6    31    1
    12     7     8   ar
    13     7    32    1
    14     8     9    1
    15     8    25   ar
    16     9    10   ar
    17    10    11   ar
    18    10    33    1
    19    11    12   ar
    20    11    34    1
    21    12    13   ar
    22    13    14    1
    23    13    24   ar
    24    14    15    1
    25    14    35    1
    26    15    16   ar
    27    16    17   ar
    28    16    36    1
    29    17    18   ar
    30    17    37    1
    31    18    19   ar
    32    18    38    1
    33    19    20    1
    34    19    23   ar
    35    20    21   am
    36    20    22    2
    37    21    39    1
    38    21    40    1
    39    23    15   ar
    40    23    41    1
    41    24     9   ar
    42    25    26   ar
    43    25    42    1
    44    26     5   ar
    45    26    43    1
@<TRIPOS>MOLECULE
*****
 43 45 0 0 0
SMALL
GASTEIGER

@<TRIPOS>ATOM
      1 C          -8.4544   -2.0879    0.3421 C.3     1  UNL11       0.0125
      2 C          -6.9877   -1.9379   -0.0059 C.2     1  UNL11       0.2141
      3 O          -6.4013   -2.9038   -0.5316 O.2     1  UNL11      -0.2758
      4 N          -6.3467   -0.7347    0.2706 N.am    1  UNL11      -0.2857
      5 C          -4.9821   -0.4471    0.0025 C.ar    1  UNL11       0.0334
      6 C          -4.0352   -0.1047    0.9194 C.ar    1  UNL11      -0.0399
      7 C          -2.6976    0.1740    0.5698 C.ar    1  UNL11      -0.0508
      8 C          -2.2858    0.1116   -0.7252 C.ar    1  UNL11       0.0006
      9 C          -0.9014    0.3908   -1.1618 C.ar    1  UNL11       0.0760
     10 C          -0.6688    0.9143   -2.4058 C.ar    1  UNL11      -0.0174
     11 C           0.6478    1.1772   -2.8145 C.ar    1  UNL11       0.0332
     12 N           1.6090    0.8956   -1.9499 N.ar    1  UNL11      -0.2226
     13 C           1.4165    0.3820   -0.7229 C.ar    1  UNL11       0.2200
     14 N           2.4319    0.0796    0.2029 N.pl3   1  UNL11      -0.2836
     15 C           3.7643   -0.3091   -0.0628 C.ar    1  UNL11       0.0343
     16 C           4.4519    0.0896   -1.1809 C.ar    1  UNL11      -0.0404
     17 C           5.7555   -0.3094   -1.4102 C.ar    1  UNL11      -0.0593
     18 C           6.3803   -1.1226   -0.5019 C.ar    1  UNL11      -0.0495
     19 C           5.7313   -1.5568    0.6484 C.ar    1  UNL11       0.0382
     20 C           6.3854   -2.4194    1.6177 C.2     1  UNL11       0.2416
     21 N           7.7881   -2.3818    1.8183 N.am    1  UNL11      -0.3253
     22 O           5.7088   -3.2231    2.3027 O.2     1  UNL11      -0.2704
     23 C           4.4445   -1.1421    0.8404 C.ar    1  UNL11      -0.0284
     24 N           0.1252    0.1313   -0.3396 N.ar    1  UNL11      -0.2142
     25 C          -3.2394   -0.2376   -1.6815 C.ar    1  UNL11      -0.0508
     26 C          -4.5355   -0.5057   -1.3276 C.ar    1  UNL11      -0.0399
     27 H          -8.9120   -1.0686    0.3428 H       1  UNL11       0.0323
     28 H          -8.9345   -2.6385   -0.4956 H       1  UNL11       0.0323
     29 H          -8.5772   -2.5864    1.3158 H       1  UNL11       0.0323
     30 H          -6.9608    0.0226    0.7243 H       1  UNL11       0.1548
     31 H          -4.2885   -0.0397    1.9640 H       1  UNL11       0.0636
     32 H          -1.9927    0.4415    1.3514 H       1  UNL11       0.0625
     33 H          -1.4628    1.1450   -3.1156 H       1  UNL11       0.0654
     34 H           0.7885    1.5888   -3.8005 H       1  UNL11       0.0831
     35 H           2.1731    0.1497    1.2297 H       1  UNL11       0.1550
     36 H           4.0220    0.7299   -1.9380 H       1  UNL11       0.0636
     37 H           6.3100    0.0058   -2.3016 H       1  UNL11       0.0618
     38 H           7.4009   -1.4489   -0.6587 H       1  UNL11       0.0625
     39 H           8.4014   -2.2271    0.9913 H       1  UNL11       0.1453
     40 H           8.1940   -2.5056    2.7668 H       1  UNL11       0.1453
     41 H           3.8994   -1.4493    1.7124 H       1  UNL11       0.0644
     42 H          -2.8847   -0.2800   -2.7068 H       1  UNL11       0.0625
     43 H          -5.2607   -0.7767   -2.0987 H       1  UNL11       0.0636
@<TRIPOS>BOND
     1     1     2    1
     2     1    27    1
     3     1    28    1
     4     1    29    1
     5     2     3    2
     6     2     4   am
     7     4     5    1
     8     4    30    1
     9     5     6   ar
    10     6     7   ar
    11     6    31    1
    12     7     8   ar
    13     7    32    1
    14     8     9    1
    15     8    25   ar
    16     9    10   ar
    17    10    11   ar
    18    10    33    1
    19    11    12   ar
    20    11    34    1
    21    12    13   ar
    22    13    14    1
    23    13    24   ar
    24    14    15    1
    25    14    35    1
    26    15    16   ar
    27    16    17   ar
    28    16    36    1
    29    17    18   ar
    30    17    37    1
    31    18    19   ar
    32    18    38    1
    33    19    20    1
    34    19    23   ar
    35    20    21   am
    36    20    22    2
    37    21    39    1
    38    21    40    1
    39    23    15   ar
    40    23    41    1
    41    24     9   ar
    42    25    26   ar
    43    25    42    1
    44    26     5   ar
    45    26    43    1
@<TRIPOS>MOLECULE
*****
 43 45 0 0 0
SMALL
GASTEIGER

@<TRIPOS>ATOM
      1 C          -7.9556   -1.3446    2.3992 C.3     1  UNL11       0.0125
      2 C          -6.5565   -0.9003    2.0248 C.2     1  UNL11       0.2141
      3 O          -5.7834   -0.5459    2.9357 O.2     1  UNL11      -0.2758
      4 N          -6.1822   -0.9024    0.6851 N.am    1  UNL11      -0.2857
      5 C          -4.9113   -0.5147    0.1838 C.ar    1  UNL11       0.0334
      6 C          -4.6661    0.4928   -0.6991 C.ar    1  UNL11      -0.0399
      7 C          -3.3702    0.8111   -1.1555 C.ar    1  UNL11      -0.0508
      8 C          -2.2858    0.1116   -0.7252 C.ar    1  UNL11       0.0006
      9 C          -0.9014    0.3908   -1.1618 C.ar    1  UNL11       0.0760
     10 C          -0.6688    0.9143   -2.4058 C.ar    1  UNL11      -0.0174
     11 C           0.6478    1.1772   -2.8145 C.ar    1  UNL11       0.0332
     12 N           1.6090    0.8956   -1.9499 N.ar    1  UNL11      -0.2226
     13 C           1.4165    0.3820   -0.7229 C.ar    1  UNL11       0.2200
     14 N           2.4319    0.0796    0.2029 N.pl3   1  UNL11      -0.2836
     15 C           2.4369   -0.9320    1.1897 C.ar    1  UNL11       0.0343
     16 C           3.1076   -0.8132    2.3805 C.ar    1  UNL11      -0.0404
     17 C           3.0916   -1.8229    3.3247 C.ar    1  UNL11      -0.0593
     18 C           2.3907   -2.9719    3.0696 C.ar    1  UNL11      -0.0495
     19 C           1.6930   -3.1460    1.8797 C.ar    1  UNL11       0.0382
     20 C           0.9467   -4.3610    1.6000 C.2     1  UNL11       0.2416
     21 N           0.3657   -5.1316    2.6382 N.am    1  UNL11      -0.3253
     22 O           0.8025   -4.7530    0.4174 O.2     1  UNL11      -0.2704
     23 C           1.7322   -2.1270    0.9716 C.ar    1  UNL11      -0.0284
     24 N           0.1252    0.1313   -0.3396 N.ar    1  UNL11      -0.2142
     25 C          -2.5137   -0.9250    0.1800 C.ar    1  UNL11      -0.0508
     26 C          -3.7781   -1.2233    0.6149 C.ar    1  UNL11      -0.0399
     27 H          -8.3195   -2.0377    1.6019 H       1  UNL11       0.0323
     28 H          -7.8678   -1.9583    3.3217 H       1  UNL11       0.0323
     29 H          -8.6238   -0.4777    2.5167 H       1  UNL11       0.0323
     30 H          -6.9382   -1.2305   -0.0056 H       1  UNL11       0.1548
     31 H          -5.4763    1.0916   -1.0791 H       1  UNL11       0.0636
     32 H          -3.2448    1.6275   -1.8606 H       1  UNL11       0.0625
     33 H          -1.4628    1.1450   -3.1156 H       1  UNL11       0.0654
     34 H           0.7885    1.5888   -3.8005 H       1  UNL11       0.0831
     35 H           3.3053    0.6810    0.1615 H       1  UNL11       0.1550
     36 H           3.6798    0.0638    2.6477 H       1  UNL11       0.0636
     37 H           3.6254   -1.7338    4.2778 H       1  UNL11       0.0618
     38 H           2.3627   -3.7773    3.7930 H       1  UNL11       0.0625
     39 H           0.8818   -5.2165    3.5384 H       1  UNL11       0.1453
     40 H          -0.5520   -5.6001    2.5041 H       1  UNL11       0.1453
     41 H           1.2104   -2.2117    0.0375 H       1  UNL11       0.0644
     42 H          -1.6317   -1.4671    0.5072 H       1  UNL11       0.0625
     43 H          -3.9262   -2.0411    1.3244 H       1  UNL11       0.0636
@<TRIPOS>BOND
     1     1     2    1
     2     1    27    1
     3     1    28    1
     4     1    29    1
     5     2     3    2
     6     2     4   am
     7     4     5    1
     8     4    30    1
     9     5     6   ar
    10     6     7   ar
    11     6    31    1
    12     7     8   ar
    13     7    32    1
    14     8     9    1
    15     8    25   ar
    16     9    10   ar
    17    10    11   ar
    18    10    33    1
    19    11    12   ar
    20    11    34    1
    21    12    13   ar
    22    13    14    1
    23    13    24   ar
    24    14    15    1
    25    14    35    1
    26    15    16   ar
    27    16    17   ar
    28    16    36    1
    29    17    18   ar
    30    17    37    1
    31    18    19   ar
    32    18    38    1
    33    19    20    1
    34    19    23   ar
    35    20    21   am
    36    20    22    2
    37    21    39    1
    38    21    40    1
    39    23    15   ar
    40    23    41    1
    41    24     9   ar
    42    25    26   ar
    43    25    42    1
    44    26     5   ar
    45    26    43    1
