@<TRIPOS>MOLECULE
*****
 47 50 0 0 0
SMALL
GASTEIGER

@<TRIPOS>ATOM
      1 O           0.4285   -0.4720   -0.4463 O.2     1  UNL11      -0.2748
      2 C          -0.5203    0.2518   -0.8951 C.2     1  UNL11       0.2251
      3 N          -0.2144    1.4775   -1.4930 N.am    1  UNL11      -0.3087
      4 C          -1.2564    2.3389   -2.0025 C.3     1  UNL11       0.0602
      5 C          -2.3942    1.4548   -2.4344 C.2     1  UNL11       0.1319
      6 N          -3.5126    1.9575   -2.9678 N.2     1  UNL11      -0.0060
      7 N          -4.5393    1.2414   -3.3602 N.am    1  UNL11      -0.0355
      8 C          -4.4866   -0.0939   -3.2269 C.2     1  UNL11       0.4383
      9 O          -5.4898   -0.7558   -3.6134 O.2     1  UNL11      -0.2116
     10 C          -3.3617   -0.6813   -2.6837 C.ar    1  UNL11       0.1005
     11 C          -3.3114   -2.0477   -2.5488 C.ar    1  UNL11      -0.0441
     12 C          -2.1786   -2.6005   -2.0050 C.ar    1  UNL11      -0.0608
     13 C          -1.1208   -1.8284   -1.6035 C.ar    1  UNL11      -0.0611
     14 C          -1.1565   -0.4435   -1.7334 C.ar    1  UNL11      -0.0517
     15 C          -2.2893    0.0965   -2.2762 C.ar    1  UNL11       0.0205
     16 C          -1.8939   -0.2291   -0.7688 C.3     1  UNL11       0.0855
     17 C          -2.9108    0.8495   -0.6325 C.ar    1  UNL11      -0.0312
     18 C          -3.7370    0.9570    0.4699 C.ar    1  UNL11      -0.0575
     19 C          -4.6474    1.9866    0.5475 C.ar    1  UNL11      -0.0615
     20 C          -4.7478    2.9177   -0.4652 C.ar    1  UNL11      -0.0617
     21 C          -3.9363    2.8317   -1.5737 C.ar    1  UNL11      -0.0615
     22 C          -3.0400    1.8091   -1.6383 C.ar    1  UNL11      -0.0575
     23 C          -2.0862   -1.3177    0.2394 C.ar    1  UNL11      -0.0312
     24 C          -2.5845   -2.5550   -0.1791 C.ar    1  UNL11      -0.0575
     25 C          -2.7908   -3.6145    0.6689 C.ar    1  UNL11      -0.0615
     26 C          -2.4896   -3.4515    2.0132 C.ar    1  UNL11      -0.0617
     27 C          -1.9945   -2.2424    2.4664 C.ar    1  UNL11      -0.0615
     28 C          -1.8034   -1.2009    1.5683 C.ar    1  UNL11      -0.0575
     29 H           0.7653    1.7859   -1.5708 H       1  UNL11       0.1491
     30 H          -0.9014    2.8956   -2.8842 H       1  UNL11       0.0529
     31 H          -1.5793    3.0180   -1.1805 H       1  UNL11       0.0529
     32 H          -5.4087    1.6948   -3.7799 H       1  UNL11       0.4829
     33 H          -4.1624   -2.6116   -2.8765 H       1  UNL11       0.0627
     34 H          -2.1557   -3.6752   -1.9063 H       1  UNL11       0.0618
     35 H          -0.2569   -2.2898   -1.1855 H       1  UNL11       0.0618
     36 H          -0.3260    0.1842   -1.4200 H       1  UNL11       0.0624
     37 H          -2.2073   -0.7602   -1.7480 H       1  UNL11       0.0492
     38 H          -3.6967    0.2476    1.2747 H       1  UNL11       0.0621
     39 H          -5.3001    2.0662    1.4257 H       1  UNL11       0.0618
     40 H          -5.4568    3.7289   -0.4165 H       1  UNL11       0.0618
     41 H          -3.9736    3.5364   -2.3983 H       1  UNL11       0.0618
     42 H          -2.3841    1.7276   -2.5190 H       1  UNL11       0.0621
     43 H          -2.8098   -2.6515   -1.2315 H       1  UNL11       0.0621
     44 H          -3.1838   -4.5778    0.3156 H       1  UNL11       0.0618
     45 H          -2.6459   -4.2799    2.7040 H       1  UNL11       0.0618
     46 H          -1.7669   -2.1386    3.5180 H       1  UNL11       0.0618
     47 H          -1.4187   -0.2917    1.9572 H       1  UNL11       0.0621
@<TRIPOS>BOND
     1     1     2    2
     2     2     3   am
     3     2    16    1
     4     3     4    1
     5     3    29    1
     6     4     5    1
     7     4    30    1
     8     4    31    1
     9     5     6    2
    10     6     7    1
    11     7     8   am
    12     7    32    1
    13     8     9    2
    14     8    10    1
    15    10    11   ar
    16    11    12   ar
    17    11    33    1
    18    12    13   ar
    19    12    34    1
    20    13    14   ar
    21    13    35    1
    22    14    15   ar
    23    14    36    1
    24    15     5    1
    25    15    10   ar
    26    16    17    1
    27    16    23    1
    28    16    37    1
    29    17    18   ar
    30    18    19   ar
    31    18    38    1
    32    19    20   ar
    33    19    39    1
    34    20    21   ar
    35    20    40    1
    36    21    22   ar
    37    21    41    1
    38    22    17   ar
    39    22    42    1
    40    23    24   ar
    41    24    25   ar
    42    24    43    1
    43    25    26   ar
    44    25    44    1
    45    26    27   ar
    46    26    45    1
    47    27    28   ar
    48    27    46    1
    49    28    23   ar
    50    28    47    1
@<TRIPOS>MOLECULE
*****
 47 50 0 0 0
SMALL
GASTEIGER

@<TRIPOS>ATOM
      1 O           0.3136   -0.4385   -1.5686 O.2     1  UNL11      -0.2748
      2 C          -0.5203    0.2518   -0.8951 C.2     1  UNL11       0.2251
      3 N          -0.0931    1.4436   -0.3031 N.am    1  UNL11      -0.3087
      4 C          -0.9975    2.2518    0.4819 C.3     1  UNL11       0.0602
      5 C          -1.4613    1.4077    1.6373 C.2     1  UNL11       0.1319
      6 N          -0.8076    1.3912    2.8037 N.2     1  UNL11      -0.0060
      7 N          -1.1587    0.6755    3.8455 N.am    1  UNL11      -0.0355
      8 C          -2.2489   -0.1039    3.7584 C.2     1  UNL11       0.4383
      9 O          -2.5614   -0.7808    4.7774 O.2     1  UNL11      -0.2116
     10 C          -2.9724   -0.1359    2.5833 C.ar    1  UNL11       0.1005
     11 C          -4.0872   -0.9345    2.4979 C.ar    1  UNL11      -0.0441
     12 C          -4.7846   -0.9437    1.3155 C.ar    1  UNL11      -0.0608
     13 C          -4.3952   -0.1858    0.2429 C.ar    1  UNL11      -0.0611
     14 C          -3.2687    0.6278    0.3137 C.ar    1  UNL11      -0.0517
     15 C          -2.5817    0.6294    1.4958 C.ar    1  UNL11       0.0205
     16 C          -1.8939   -0.2291   -0.7688 C.3     1  UNL11       0.0855
     17 C          -2.9108    0.8495   -0.6325 C.ar    1  UNL11      -0.0312
     18 C          -4.2594    0.5855   -0.4879 C.ar    1  UNL11      -0.0575
     19 C          -5.1512    1.6248   -0.3491 C.ar    1  UNL11      -0.0615
     20 C          -4.7158    2.9336   -0.3527 C.ar    1  UNL11      -0.0617
     21 C          -3.3775    3.2223   -0.4959 C.ar    1  UNL11      -0.0615
     22 C          -2.5058    2.1856   -0.6320 C.ar    1  UNL11      -0.0575
     23 C          -2.0862   -1.3177    0.2394 C.ar    1  UNL11      -0.0312
     24 C          -2.3948   -0.9780    1.5599 C.ar    1  UNL11      -0.0575
     25 C          -2.5935   -1.9039    2.5535 C.ar    1  UNL11      -0.0615
     26 C          -2.4829   -3.2490    2.2331 C.ar    1  UNL11      -0.0617
     27 C          -2.1790   -3.6257    0.9376 C.ar    1  UNL11      -0.0615
     28 C          -1.9873   -2.6504   -0.0319 C.ar    1  UNL11      -0.0575
     29 H           0.8815    1.7576   -0.4151 H       1  UNL11       0.1491
     30 H          -1.8808    2.5329   -0.1133 H       1  UNL11       0.0529
     31 H          -0.4386    3.1431    0.8485 H       1  UNL11       0.0529
     32 H          -0.5999    0.6998    4.7537 H       1  UNL11       0.4829
     33 H          -4.3542   -1.5100    3.3622 H       1  UNL11       0.0627
     34 H          -5.6577   -1.5764    1.2656 H       1  UNL11       0.0618
     35 H          -4.9591   -0.2165   -0.6598 H       1  UNL11       0.0618
     36 H          -2.9456    1.2356   -0.5280 H       1  UNL11       0.0624
     37 H          -2.2073   -0.7602   -1.7480 H       1  UNL11       0.0492
     38 H          -4.6397   -0.4185   -0.4894 H       1  UNL11       0.0621
     39 H          -6.2205    1.4082   -0.2343 H       1  UNL11       0.0618
     40 H          -5.4042    3.7568   -0.2448 H       1  UNL11       0.0618
     41 H          -2.9814    4.2327   -0.5057 H       1  UNL11       0.0618
     42 H          -1.4322    2.4012   -0.7473 H       1  UNL11       0.0621
     43 H          -2.4741    0.0772    1.7789 H       1  UNL11       0.0621
     44 H          -2.8352   -1.6117    3.5847 H       1  UNL11       0.0618
     45 H          -2.6367   -4.0011    3.0069 H       1  UNL11       0.0618
     46 H          -2.0980   -4.6796    0.7113 H       1  UNL11       0.0618
     47 H          -1.7591   -2.9828   -1.0134 H       1  UNL11       0.0621
@<TRIPOS>BOND
     1     1     2    2
     2     2     3   am
     3     2    16    1
     4     3     4    1
     5     3    29    1
     6     4     5    1
     7     4    30    1
     8     4    31    1
     9     5     6    2
    10     6     7    1
    11     7     8   am
    12     7    32    1
    13     8     9    2
    14     8    10    1
    15    10    11   ar
    16    11    12   ar
    17    11    33    1
    18    12    13   ar
    19    12    34    1
    20    13    14   ar
    21    13    35    1
    22    14    15   ar
    23    14    36    1
    24    15     5    1
    25    15    10   ar
    26    16    17    1
    27    16    23    1
    28    16    37    1
    29    17    18   ar
    30    18    19   ar
    31    18    38    1
    32    19    20   ar
    33    19    39    1
    34    20    21   ar
    35    20    40    1
    36    21    22   ar
    37    21    41    1
    38    22    17   ar
    39    22    42    1
    40    23    24   ar
    41    24    25   ar
    42    24    43    1
    43    25    26   ar
    44    25    44    1
    45    26    27   ar
    46    26    45    1
    47    27    28   ar
    48    27    46    1
    49    28    23   ar
    50    28    47    1
@<TRIPOS>MOLECULE
*****
 47 50 0 0 0
SMALL
GASTEIGER

@<TRIPOS>ATOM
      1 O          -0.2009    1.3540   -0.3394 O.2     1  UNL11      -0.2748
      2 C          -0.5203    0.2518   -0.8951 C.2     1  UNL11       0.2251
      3 N           0.4532   -0.4582   -1.6034 N.am    1  UNL11      -0.3087
      4 C           1.8057    0.0379   -1.7124 C.3     1  UNL11       0.0602
      5 C           1.8650    1.3398   -0.9615 C.2     1  UNL11       0.1319
      6 N           1.6176    2.5096   -1.5604 N.2     1  UNL11      -0.0060
      7 N           1.6565    3.6767   -0.9627 N.am    1  UNL11      -0.0355
      8 C           1.9643    3.7255    0.3437 C.2     1  UNL11       0.4383
      9 O           1.9938    4.8630    0.8908 O.2     1  UNL11      -0.2116
     10 C           2.2314    2.5556    1.0257 C.ar    1  UNL11       0.1005
     11 C           2.5460    2.6095    2.3621 C.ar    1  UNL11      -0.0441
     12 C           2.8063    1.4283    3.0113 C.ar    1  UNL11      -0.0608
     13 C           2.7584    0.2230    2.3621 C.ar    1  UNL11      -0.0611
     14 C           2.4416    0.1519    1.0091 C.ar    1  UNL11      -0.0517
     15 C           2.1841    1.3341    0.3724 C.ar    1  UNL11       0.0205
     16 C          -1.8939   -0.2291   -0.7688 C.3     1  UNL11       0.0855
     17 C          -2.9108    0.8495   -0.6325 C.ar    1  UNL11      -0.0312
     18 C          -3.9425    1.0169   -1.5365 C.ar    1  UNL11      -0.0575
     19 C          -4.8632    2.0227   -1.3486 C.ar    1  UNL11      -0.0615
     20 C          -4.7703    2.8712   -0.2651 C.ar    1  UNL11      -0.0617
     21 C          -3.7514    2.7251    0.6489 C.ar    1  UNL11      -0.0615
     22 C          -2.8475    1.7264    0.4520 C.ar    1  UNL11      -0.0575
     23 C          -2.0862   -1.3177    0.2394 C.ar    1  UNL11      -0.0312
     24 C          -2.9544   -1.1064    1.3146 C.ar    1  UNL11      -0.0575
     25 C          -3.1991   -2.0445    2.2862 C.ar    1  UNL11      -0.0615
     26 C          -2.5518   -3.2683    2.1991 C.ar    1  UNL11      -0.0617
     27 C          -1.6852   -3.5160    1.1502 C.ar    1  UNL11      -0.0615
     28 C          -1.4714   -2.5340    0.1923 C.ar    1  UNL11      -0.0575
     29 H           0.2164   -1.3541   -2.0532 H       1  UNL11       0.1491
     30 H           2.0607    0.2378   -2.7652 H       1  UNL11       0.0529
     31 H           2.4892   -0.7110   -1.2509 H       1  UNL11       0.0529
     32 H           1.4502    4.5809   -1.4893 H       1  UNL11       0.4829
     33 H           2.5715    3.5745    2.8286 H       1  UNL11       0.0627
     34 H           3.0516    1.4888    4.0608 H       1  UNL11       0.0618
     35 H           2.9660   -0.6747    2.8959 H       1  UNL11       0.0618
     36 H           2.3992   -0.7961    0.4784 H       1  UNL11       0.0624
     37 H          -2.2073   -0.7602   -1.7480 H       1  UNL11       0.0492
     38 H          -4.0445    0.3838   -2.3975 H       1  UNL11       0.0621
     39 H          -5.6800    2.1498   -2.0699 H       1  UNL11       0.0618
     40 H          -5.4851    3.6630   -0.1065 H       1  UNL11       0.0618
     41 H          -3.6314    3.3642    1.5179 H       1  UNL11       0.0618
     42 H          -2.0271    1.5974    1.1749 H       1  UNL11       0.0621
     43 H          -3.4436   -0.1437    1.3554 H       1  UNL11       0.0621
     44 H          -3.8863   -1.8545    3.1221 H       1  UNL11       0.0618
     45 H          -2.7316   -4.0277    2.9600 H       1  UNL11       0.0618
     46 H          -1.1922   -4.4768    1.1029 H       1  UNL11       0.0618
     47 H          -0.8015   -2.7664   -0.5971 H       1  UNL11       0.0621
@<TRIPOS>BOND
     1     1     2    2
     2     2     3   am
     3     2    16    1
     4     3     4    1
     5     3    29    1
     6     4     5    1
     7     4    30    1
     8     4    31    1
     9     5     6    2
    10     6     7    1
    11     7     8   am
    12     7    32    1
    13     8     9    2
    14     8    10    1
    15    10    11   ar
    16    11    12   ar
    17    11    33    1
    18    12    13   ar
    19    12    34    1
    20    13    14   ar
    21    13    35    1
    22    14    15   ar
    23    14    36    1
    24    15     5    1
    25    15    10   ar
    26    16    17    1
    27    16    23    1
    28    16    37    1
    29    17    18   ar
    30    18    19   ar
    31    18    38    1
    32    19    20   ar
    33    19    39    1
    34    20    21   ar
    35    20    40    1
    36    21    22   ar
    37    21    41    1
    38    22    17   ar
    39    22    42    1
    40    23    24   ar
    41    24    25   ar
    42    24    43    1
    43    25    26   ar
    44    25    44    1
    45    26    27   ar
    46    26    45    1
    47    27    28   ar
    48    27    46    1
    49    28    23   ar
    50    28    47    1
@<TRIPOS>MOLECULE
*****
 47 50 0 0 0
SMALL
GASTEIGER

@<TRIPOS>ATOM
      1 O          -0.3046    1.5083   -0.8797 O.2     1  UNL11      -0.2748
      2 C          -0.5203    0.2518   -0.8951 C.2     1  UNL11       0.2251
      3 N           0.5629   -0.6211   -1.0304 N.am    1  UNL11      -0.3087
      4 C           0.3667   -2.0519   -1.0682 C.3     1  UNL11       0.0602
      5 C          -0.3028   -2.4445    0.2202 C.2     1  UNL11       0.1319
      6 N          -0.6080   -3.7170    0.4955 N.2     1  UNL11      -0.0060
      7 N          -1.1938   -4.1221    1.5971 N.am    1  UNL11      -0.0355
      8 C          -1.5197   -3.2125    2.5298 C.2     1  UNL11       0.4383
      9 O          -2.0823   -3.6329    3.5789 O.2     1  UNL11      -0.2116
     10 C          -1.2339   -1.8797    2.3119 C.ar    1  UNL11       0.1005
     11 C          -1.5689   -0.9519    3.2684 C.ar    1  UNL11      -0.0441
     12 C          -1.2710    0.3651    3.0212 C.ar    1  UNL11      -0.0608
     13 C          -0.6585    0.7604    1.8614 C.ar    1  UNL11      -0.0611
     14 C          -0.3132   -0.1670    0.8833 C.ar    1  UNL11      -0.0517
     15 C          -0.6143   -1.4758    1.1398 C.ar    1  UNL11       0.0205
     16 C          -1.8939   -0.2291   -0.7688 C.3     1  UNL11       0.0855
     17 C          -2.9108    0.8495   -0.6325 C.ar    1  UNL11      -0.0312
     18 C          -4.2594    0.5855   -0.4879 C.ar    1  UNL11      -0.0575
     19 C          -5.1512    1.6248   -0.3491 C.ar    1  UNL11      -0.0615
     20 C          -4.7158    2.9336   -0.3527 C.ar    1  UNL11      -0.0617
     21 C          -3.3775    3.2223   -0.4959 C.ar    1  UNL11      -0.0615
     22 C          -2.5058    2.1856   -0.6320 C.ar    1  UNL11      -0.0575
     23 C          -2.0862   -1.3177    0.2394 C.ar    1  UNL11      -0.0312
     24 C          -2.3948   -0.9780    1.5599 C.ar    1  UNL11      -0.0575
     25 C          -2.5935   -1.9039    2.5535 C.ar    1  UNL11      -0.0615
     26 C          -2.4829   -3.2490    2.2331 C.ar    1  UNL11      -0.0617
     27 C          -2.1790   -3.6257    0.9376 C.ar    1  UNL11      -0.0615
     28 C          -1.9873   -2.6504   -0.0319 C.ar    1  UNL11      -0.0575
     29 H           1.5202   -0.2500   -1.1125 H       1  UNL11       0.1491
     30 H           1.3352   -2.5738   -1.1239 H       1  UNL11       0.0529
     31 H          -0.2881   -2.2904   -1.9374 H       1  UNL11       0.0529
     32 H          -1.4149   -5.1518    1.7658 H       1  UNL11       0.4829
     33 H          -2.0467   -1.3070    4.1601 H       1  UNL11       0.0627
     34 H          -1.5409    1.0807    3.7830 H       1  UNL11       0.0618
     35 H          -0.4417    1.7906    1.7016 H       1  UNL11       0.0618
     36 H           0.1732    0.1295   -0.0428 H       1  UNL11       0.0624
     37 H          -2.2073   -0.7602   -1.7480 H       1  UNL11       0.0492
     38 H          -4.6397   -0.4185   -0.4894 H       1  UNL11       0.0621
     39 H          -6.2205    1.4082   -0.2343 H       1  UNL11       0.0618
     40 H          -5.4042    3.7568   -0.2448 H       1  UNL11       0.0618
     41 H          -2.9814    4.2327   -0.5057 H       1  UNL11       0.0618
     42 H          -1.4322    2.4012   -0.7473 H       1  UNL11       0.0621
     43 H          -2.4741    0.0772    1.7789 H       1  UNL11       0.0621
     44 H          -2.8352   -1.6117    3.5847 H       1  UNL11       0.0618
     45 H          -2.6367   -4.0011    3.0069 H       1  UNL11       0.0618
     46 H          -2.0980   -4.6796    0.7113 H       1  UNL11       0.0618
     47 H          -1.7591   -2.9828   -1.0134 H       1  UNL11       0.0621
@<TRIPOS>BOND
     1     1     2    2
     2     2     3   am
     3     2    16    1
     4     3     4    1
     5     3    29    1
     6     4     5    1
     7     4    30    1
     8     4    31    1
     9     5     6    2
    10     6     7    1
    11     7     8   am
    12     7    32    1
    13     8     9    2
    14     8    10    1
    15    10    11   ar
    16    11    12   ar
    17    11    33    1
    18    12    13   ar
    19    12    34    1
    20    13    14   ar
    21    13    35    1
    22    14    15   ar
    23    14    36    1
    24    15     5    1
    25    15    10   ar
    26    16    17    1
    27    16    23    1
    28    16    37    1
    29    17    18   ar
    30    18    19   ar
    31    18    38    1
    32    19    20   ar
    33    19    39    1
    34    20    21   ar
    35    20    40    1
    36    21    22   ar
    37    21    41    1
    38    22    17   ar
    39    22    42    1
    40    23    24   ar
    41    24    25   ar
    42    24    43    1
    43    25    26   ar
    44    25    44    1
    45    26    27   ar
    46    26    45    1
    47    27    28   ar
    48    27    46    1
    49    28    23   ar
    50    28    47    1
@<TRIPOS>MOLECULE
*****
 47 50 0 0 0
SMALL
GASTEIGER

@<TRIPOS>ATOM
      1 O          -0.3046    1.5083   -0.8797 O.2     1  UNL11      -0.2748
      2 C          -0.5203    0.2518   -0.8951 C.2     1  UNL11       0.2251
      3 N           0.5629   -0.6211   -1.0304 N.am    1  UNL11      -0.3087
      4 C           0.3667   -2.0519   -1.0682 C.3     1  UNL11       0.0602
      5 C          -0.9913   -2.3002   -1.6656 C.2     1  UNL11       0.1319
      6 N          -1.4753   -3.5367   -1.8233 N.2     1  UNL11      -0.0060
      7 N          -2.6478   -3.8186   -2.3396 N.am    1  UNL11      -0.0355
      8 C          -3.4362   -2.8101   -2.7459 C.2     1  UNL11       0.4383
      9 O          -4.5585   -3.1130   -3.2385 O.2     1  UNL11      -0.2116
     10 C          -2.9999   -1.5073   -2.6130 C.ar    1  UNL11       0.1005
     11 C          -3.8092   -0.4781   -3.0299 C.ar    1  UNL11      -0.0441
     12 C          -3.3460    0.8059   -2.8839 C.ar    1  UNL11      -0.0608
     13 C          -2.1167    1.0715   -2.3411 C.ar    1  UNL11      -0.0611
     14 C          -1.2857    0.0404   -1.9144 C.ar    1  UNL11      -0.0517
     15 C          -1.7568   -1.2343   -2.0644 C.ar    1  UNL11       0.0205
     16 C          -1.8939   -0.2291   -0.7688 C.3     1  UNL11       0.0855
     17 C          -2.9108    0.8495   -0.6325 C.ar    1  UNL11      -0.0312
     18 C          -4.2594    0.5855   -0.4879 C.ar    1  UNL11      -0.0575
     19 C          -5.1512    1.6248   -0.3491 C.ar    1  UNL11      -0.0615
     20 C          -4.7158    2.9336   -0.3527 C.ar    1  UNL11      -0.0617
     21 C          -3.3775    3.2223   -0.4959 C.ar    1  UNL11      -0.0615
     22 C          -2.5058    2.1856   -0.6320 C.ar    1  UNL11      -0.0575
     23 C          -2.0862   -1.3177    0.2394 C.ar    1  UNL11      -0.0312
     24 C          -2.3948   -0.9780    1.5599 C.ar    1  UNL11      -0.0575
     25 C          -2.5935   -1.9039    2.5535 C.ar    1  UNL11      -0.0615
     26 C          -2.4829   -3.2490    2.2331 C.ar    1  UNL11      -0.0617
     27 C          -2.1790   -3.6257    0.9376 C.ar    1  UNL11      -0.0615
     28 C          -1.9873   -2.6504   -0.0319 C.ar    1  UNL11      -0.0575
     29 H           1.5202   -0.2500   -1.1125 H       1  UNL11       0.1491
     30 H           0.3745   -2.4705   -0.0494 H       1  UNL11       0.0529
     31 H           1.1627   -2.4954   -1.7092 H       1  UNL11       0.0529
     32 H          -2.9853   -4.8252   -2.4425 H       1  UNL11       0.4829
     33 H          -4.7627   -0.7333   -3.4485 H       1  UNL11       0.0627
     34 H          -3.9943    1.6023   -3.2164 H       1  UNL11       0.0618
     35 H          -1.7880    2.0796   -2.2423 H       1  UNL11       0.0618
     36 H          -0.3071    0.2334   -1.4814 H       1  UNL11       0.0624
     37 H          -2.2073   -0.7602   -1.7480 H       1  UNL11       0.0492
     38 H          -4.6397   -0.4185   -0.4894 H       1  UNL11       0.0621
     39 H          -6.2205    1.4082   -0.2343 H       1  UNL11       0.0618
     40 H          -5.4042    3.7568   -0.2448 H       1  UNL11       0.0618
     41 H          -2.9814    4.2327   -0.5057 H       1  UNL11       0.0618
     42 H          -1.4322    2.4012   -0.7473 H       1  UNL11       0.0621
     43 H          -2.4741    0.0772    1.7789 H       1  UNL11       0.0621
     44 H          -2.8352   -1.6117    3.5847 H       1  UNL11       0.0618
     45 H          -2.6367   -4.0011    3.0069 H       1  UNL11       0.0618
     46 H          -2.0980   -4.6796    0.7113 H       1  UNL11       0.0618
     47 H          -1.7591   -2.9828   -1.0134 H       1  UNL11       0.0621
@<TRIPOS>BOND
     1     1     2    2
     2     2     3   am
     3     2    16    1
     4     3     4    1
     5     3    29    1
     6     4     5    1
     7     4    30    1
     8     4    31    1
     9     5     6    2
    10     6     7    1
    11     7     8   am
    12     7    32    1
    13     8     9    2
    14     8    10    1
    15    10    11   ar
    16    11    12   ar
    17    11    33    1
    18    12    13   ar
    19    12    34    1
    20    13    14   ar
    21    13    35    1
    22    14    15   ar
    23    14    36    1
    24    15     5    1
    25    15    10   ar
    26    16    17    1
    27    16    23    1
    28    16    37    1
    29    17    18   ar
    30    18    19   ar
    31    18    38    1
    32    19    20   ar
    33    19    39    1
    34    20    21   ar
    35    20    40    1
    36    21    22   ar
    37    21    41    1
    38    22    17   ar
    39    22    42    1
    40    23    24   ar
    41    24    25   ar
    42    24    43    1
    43    25    26   ar
    44    25    44    1
    45    26    27   ar
    46    26    45    1
    47    27    28   ar
    48    27    46    1
    49    28    23   ar
    50    28    47    1
@<TRIPOS>MOLECULE
*****
 47 50 0 0 0
SMALL
GASTEIGER

@<TRIPOS>ATOM
      1 O           0.1740    0.4147    0.1618 O.2     1  UNL11      -0.2748
      2 C          -0.5203    0.2518   -0.8951 C.2     1  UNL11       0.2251
      3 N           0.0558    0.5368   -2.1362 N.am    1  UNL11      -0.3087
      4 C          -0.6962    0.3821   -3.3601 C.3     1  UNL11       0.0602
      5 C          -1.6982   -0.7163   -3.1319 C.2     1  UNL11       0.1319
      6 N          -2.9252   -0.4635   -2.6641 N.2     1  UNL11      -0.0060
      7 N          -3.8411   -1.3757   -2.4410 N.am    1  UNL11      -0.0355
      8 C          -3.5491   -2.6621   -2.6930 C.2     1  UNL11       0.4383
      9 O          -4.4509   -3.5167   -2.4684 O.2     1  UNL11      -0.2116
     10 C          -2.3005   -2.9958   -3.1779 C.ar    1  UNL11       0.1005
     11 C          -2.0054   -4.3129   -3.4345 C.ar    1  UNL11      -0.0441
     12 C          -0.7550   -4.6114   -3.9160 C.ar    1  UNL11      -0.0608
     13 C           0.1827   -3.6382   -4.1398 C.ar    1  UNL11      -0.0611
     14 C          -0.1009   -2.3001   -3.8849 C.ar    1  UNL11      -0.0517
     15 C          -1.3491   -2.0140   -3.4057 C.ar    1  UNL11       0.0205
     16 C          -1.8939   -0.2291   -0.7688 C.3     1  UNL11       0.0855
     17 C          -2.9108    0.8495   -0.6325 C.ar    1  UNL11      -0.0312
     18 C          -4.2594    0.5855   -0.4879 C.ar    1  UNL11      -0.0575
     19 C          -5.1512    1.6248   -0.3491 C.ar    1  UNL11      -0.0615
     20 C          -4.7158    2.9336   -0.3527 C.ar    1  UNL11      -0.0617
     21 C          -3.3775    3.2223   -0.4959 C.ar    1  UNL11      -0.0615
     22 C          -2.5058    2.1856   -0.6320 C.ar    1  UNL11      -0.0575
     23 C          -2.0862   -1.3177    0.2394 C.ar    1  UNL11      -0.0312
     24 C          -2.3948   -0.9780    1.5599 C.ar    1  UNL11      -0.0575
     25 C          -2.5935   -1.9039    2.5535 C.ar    1  UNL11      -0.0615
     26 C          -2.4829   -3.2490    2.2331 C.ar    1  UNL11      -0.0617
     27 C          -2.1790   -3.6257    0.9376 C.ar    1  UNL11      -0.0615
     28 C          -1.9873   -2.6504   -0.0319 C.ar    1  UNL11      -0.0575
     29 H           1.0289    0.8699   -2.1915 H       1  UNL11       0.1491
     30 H          -0.0337    0.0756   -4.1850 H       1  UNL11       0.0529
     31 H          -1.2138    1.3451   -3.5744 H       1  UNL11       0.0529
     32 H          -4.8059   -1.1183   -2.0664 H       1  UNL11       0.4829
     33 H          -2.7699   -5.0402   -3.2444 H       1  UNL11       0.0627
     34 H          -0.5398   -5.6508   -4.1122 H       1  UNL11       0.0618
     35 H           1.1434   -3.9045   -4.5140 H       1  UNL11       0.0618
     36 H           0.6315   -1.5151   -4.0569 H       1  UNL11       0.0624
     37 H          -2.2073   -0.7602   -1.7480 H       1  UNL11       0.0492
     38 H          -4.6397   -0.4185   -0.4894 H       1  UNL11       0.0621
     39 H          -6.2205    1.4082   -0.2343 H       1  UNL11       0.0618
     40 H          -5.4042    3.7568   -0.2448 H       1  UNL11       0.0618
     41 H          -2.9814    4.2327   -0.5057 H       1  UNL11       0.0618
     42 H          -1.4322    2.4012   -0.7473 H       1  UNL11       0.0621
     43 H          -2.4741    0.0772    1.7789 H       1  UNL11       0.0621
     44 H          -2.8352   -1.6117    3.5847 H       1  UNL11       0.0618
     45 H          -2.6367   -4.0011    3.0069 H       1  UNL11       0.0618
     46 H          -2.0980   -4.6796    0.7113 H       1  UNL11       0.0618
     47 H          -1.7591   -2.9828   -1.0134 H       1  UNL11       0.0621
@<TRIPOS>BOND
     1     1     2    2
     2     2     3   am
     3     2    16    1
     4     3     4    1
     5     3    29    1
     6     4     5    1
     7     4    30    1
     8     4    31    1
     9     5     6    2
    10     6     7    1
    11     7     8   am
    12     7    32    1
    13     8     9    2
    14     8    10    1
    15    10    11   ar
    16    11    12   ar
    17    11    33    1
    18    12    13   ar
    19    12    34    1
    20    13    14   ar
    21    13    35    1
    22    14    15   ar
    23    14    36    1
    24    15     5    1
    25    15    10   ar
    26    16    17    1
    27    16    23    1
    28    16    37    1
    29    17    18   ar
    30    18    19   ar
    31    18    38    1
    32    19    20   ar
    33    19    39    1
    34    20    21   ar
    35    20    40    1
    36    21    22   ar
    37    21    41    1
    38    22    17   ar
    39    22    42    1
    40    23    24   ar
    41    24    25   ar
    42    24    43    1
    43    25    26   ar
    44    25    44    1
    45    26    27   ar
    46    26    45    1
    47    27    28   ar
    48    27    46    1
    49    28    23   ar
    50    28    47    1
@<TRIPOS>MOLECULE
*****
 47 50 0 0 0
SMALL
GASTEIGER

@<TRIPOS>ATOM
      1 O           0.1740    0.4147    0.1618 O.2     1  UNL11      -0.2748
      2 C          -0.5203    0.2518   -0.8951 C.2     1  UNL11       0.2251
      3 N           0.0558    0.5368   -2.1362 N.am    1  UNL11      -0.3087
      4 C          -0.6962    0.3821   -3.3601 C.3     1  UNL11       0.0602
      5 C          -2.1424    0.6298   -3.0291 C.2     1  UNL11       0.1319
      6 N          -3.1011    0.5465   -3.9576 N.2     1  UNL11      -0.0060
      7 N          -4.3768    0.7540   -3.7335 N.am    1  UNL11      -0.0355
      8 C          -4.7725    1.0740   -2.4906 C.2     1  UNL11       0.4383
      9 O          -6.0064    1.2676   -2.3061 O.2     1  UNL11      -0.2116
     10 C          -3.8359    1.1775   -1.4820 C.ar    1  UNL11       0.1005
     11 C          -4.2444    1.5052   -0.2117 C.ar    1  UNL11      -0.0441
     12 C          -3.2882    1.6000    0.7687 C.ar    1  UNL11      -0.0608
     13 C          -1.9622    1.3780    0.5063 C.ar    1  UNL11      -0.0611
     14 C          -1.5327    1.0454   -0.7746 C.ar    1  UNL11      -0.0517
     15 C          -2.4933    0.9536   -1.7433 C.ar    1  UNL11       0.0205
     16 C          -1.8939   -0.2291   -0.7688 C.3     1  UNL11       0.0855
     17 C          -2.9108    0.8495   -0.6325 C.ar    1  UNL11      -0.0312
     18 C          -2.5760    2.1902   -0.6268 C.ar    1  UNL11      -0.0575
     19 C          -3.5627    3.1434   -0.5146 C.ar    1  UNL11      -0.0615
     20 C          -4.8883    2.7778   -0.4067 C.ar    1  UNL11      -0.0617
     21 C          -5.2469    1.4489   -0.4094 C.ar    1  UNL11      -0.0615
     22 C          -4.2619    0.5159   -0.5212 C.ar    1  UNL11      -0.0575
     23 C          -2.0862   -1.3177    0.2394 C.ar    1  UNL11      -0.0312
     24 C          -2.5845   -2.5550   -0.1791 C.ar    1  UNL11      -0.0575
     25 C          -2.7908   -3.6145    0.6689 C.ar    1  UNL11      -0.0615
     26 C          -2.4896   -3.4515    2.0132 C.ar    1  UNL11      -0.0617
     27 C          -1.9945   -2.2424    2.4664 C.ar    1  UNL11      -0.0615
     28 C          -1.8034   -1.2009    1.5683 C.ar    1  UNL11      -0.0575
     29 H           1.0289    0.8699   -2.1915 H       1  UNL11       0.1491
     30 H          -0.6038   -0.6464   -3.7435 H       1  UNL11       0.0529
     31 H          -0.3280    1.1367   -4.0923 H       1  UNL11       0.0529
     32 H          -5.1009    0.6742   -4.5125 H       1  UNL11       0.4829
     33 H          -5.2919    1.6699   -0.0531 H       1  UNL11       0.0627
     34 H          -3.6263    1.8583    1.7607 H       1  UNL11       0.0618
     35 H          -1.2463    1.4599    1.2903 H       1  UNL11       0.0618
     36 H          -0.4844    0.8660   -1.0003 H       1  UNL11       0.0624
     37 H          -2.2073   -0.7602   -1.7480 H       1  UNL11       0.0492
     38 H          -1.5555    2.5157   -0.6990 H       1  UNL11       0.0621
     39 H          -3.2900    4.2061   -0.5111 H       1  UNL11       0.0618
     40 H          -5.6706    3.5148   -0.3182 H       1  UNL11       0.0618
     41 H          -6.2735    1.1063   -0.3273 H       1  UNL11       0.0618
     42 H          -4.5338   -0.5511   -0.5250 H       1  UNL11       0.0621
     43 H          -2.8098   -2.6515   -1.2315 H       1  UNL11       0.0621
     44 H          -3.1838   -4.5778    0.3156 H       1  UNL11       0.0618
     45 H          -2.6459   -4.2799    2.7040 H       1  UNL11       0.0618
     46 H          -1.7669   -2.1386    3.5180 H       1  UNL11       0.0618
     47 H          -1.4187   -0.2917    1.9572 H       1  UNL11       0.0621
@<TRIPOS>BOND
     1     1     2    2
     2     2     3   am
     3     2    16    1
     4     3     4    1
     5     3    29    1
     6     4     5    1
     7     4    30    1
     8     4    31    1
     9     5     6    2
    10     6     7    1
    11     7     8   am
    12     7    32    1
    13     8     9    2
    14     8    10    1
    15    10    11   ar
    16    11    12   ar
    17    11    33    1
    18    12    13   ar
    19    12    34    1
    20    13    14   ar
    21    13    35    1
    22    14    15   ar
    23    14    36    1
    24    15     5    1
    25    15    10   ar
    26    16    17    1
    27    16    23    1
    28    16    37    1
    29    17    18   ar
    30    18    19   ar
    31    18    38    1
    32    19    20   ar
    33    19    39    1
    34    20    21   ar
    35    20    40    1
    36    21    22   ar
    37    21    41    1
    38    22    17   ar
    39    22    42    1
    40    23    24   ar
    41    24    25   ar
    42    24    43    1
    43    25    26   ar
    44    25    44    1
    45    26    27   ar
    46    26    45    1
    47    27    28   ar
    48    27    46    1
    49    28    23   ar
    50    28    47    1
@<TRIPOS>MOLECULE
*****
 47 50 0 0 0
SMALL
GASTEIGER

@<TRIPOS>ATOM
      1 O           0.4285   -0.4720   -0.4463 O.2     1  UNL11      -0.2748
      2 C          -0.5203    0.2518   -0.8951 C.2     1  UNL11       0.2251
      3 N          -0.2144    1.4775   -1.4930 N.am    1  UNL11      -0.3087
      4 C          -1.2564    2.3389   -2.0025 C.3     1  UNL11       0.0602
      5 C          -1.6630    3.2573   -0.8828 C.2     1  UNL11       0.1319
      6 N          -1.5552    4.5861   -0.9883 N.2     1  UNL11      -0.0060
      7 N          -1.8886    5.4385   -0.0486 N.am    1  UNL11      -0.0355
      8 C          -2.3754    4.9669    1.1108 C.2     1  UNL11       0.4383
      9 O          -2.6873    5.8116    1.9958 O.2     1  UNL11      -0.2116
     10 C          -2.5138    3.6051    1.2889 C.ar    1  UNL11       0.1005
     11 C          -3.0121    3.1262    2.4764 C.ar    1  UNL11      -0.0441
     12 C          -3.1373    1.7669    2.6217 C.ar    1  UNL11      -0.0608
     13 C          -2.7812    0.8993    1.6233 C.ar    1  UNL11      -0.0611
     14 C          -2.2751    1.3686    0.4152 C.ar    1  UNL11      -0.0517
     15 C          -2.1546    2.7239    0.2811 C.ar    1  UNL11       0.0205
     16 C          -1.8939   -0.2291   -0.7688 C.3     1  UNL11       0.0855
     17 C          -2.9108    0.8495   -0.6325 C.ar    1  UNL11      -0.0312
     18 C          -2.5760    2.1902   -0.6268 C.ar    1  UNL11      -0.0575
     19 C          -3.5627    3.1434   -0.5146 C.ar    1  UNL11      -0.0615
     20 C          -4.8883    2.7778   -0.4067 C.ar    1  UNL11      -0.0617
     21 C          -5.2469    1.4489   -0.4094 C.ar    1  UNL11      -0.0615
     22 C          -4.2619    0.5159   -0.5212 C.ar    1  UNL11      -0.0575
     23 C          -2.0862   -1.3177    0.2394 C.ar    1  UNL11      -0.0312
     24 C          -0.9828   -1.7811    0.9621 C.ar    1  UNL11      -0.0575
     25 C          -1.0596   -2.7712    1.9096 C.ar    1  UNL11      -0.0615
     26 C          -2.2967   -3.3443    2.1657 C.ar    1  UNL11      -0.0617
     27 C          -3.4125   -2.9132    1.4716 C.ar    1  UNL11      -0.0615
     28 C          -3.2823   -1.9080    0.5227 C.ar    1  UNL11      -0.0575
     29 H           0.7653    1.7859   -1.5708 H       1  UNL11       0.1491
     30 H          -2.1376    1.7472   -2.2973 H       1  UNL11       0.0529
     31 H          -0.8395    2.9224   -2.8550 H       1  UNL11       0.0529
     32 H          -1.7818    6.4908   -0.1857 H       1  UNL11       0.4829
     33 H          -3.2776    3.8421    3.2292 H       1  UNL11       0.0627
     34 H          -3.5304    1.4079    3.5607 H       1  UNL11       0.0618
     35 H          -2.8913   -0.1498    1.7691 H       1  UNL11       0.0618
     36 H          -1.9875    0.6940   -0.3877 H       1  UNL11       0.0624
     37 H          -2.2073   -0.7602   -1.7480 H       1  UNL11       0.0492
     38 H          -1.5555    2.5157   -0.6990 H       1  UNL11       0.0621
     39 H          -3.2900    4.2061   -0.5111 H       1  UNL11       0.0618
     40 H          -5.6706    3.5148   -0.3182 H       1  UNL11       0.0618
     41 H          -6.2735    1.1063   -0.3273 H       1  UNL11       0.0618
     42 H          -4.5338   -0.5511   -0.5250 H       1  UNL11       0.0621
     43 H          -0.0331   -1.3157    0.7405 H       1  UNL11       0.0621
     44 H          -0.1774   -3.1185    2.4647 H       1  UNL11       0.0618
     45 H          -2.3802   -4.1323    2.9141 H       1  UNL11       0.0618
     46 H          -4.3659   -3.3743    1.6881 H       1  UNL11       0.0618
     47 H          -4.1638   -1.6050    0.0156 H       1  UNL11       0.0621
@<TRIPOS>BOND
     1     1     2    2
     2     2     3   am
     3     2    16    1
     4     3     4    1
     5     3    29    1
     6     4     5    1
     7     4    30    1
     8     4    31    1
     9     5     6    2
    10     6     7    1
    11     7     8   am
    12     7    32    1
    13     8     9    2
    14     8    10    1
    15    10    11   ar
    16    11    12   ar
    17    11    33    1
    18    12    13   ar
    19    12    34    1
    20    13    14   ar
    21    13    35    1
    22    14    15   ar
    23    14    36    1
    24    15     5    1
    25    15    10   ar
    26    16    17    1
    27    16    23    1
    28    16    37    1
    29    17    18   ar
    30    18    19   ar
    31    18    38    1
    32    19    20   ar
    33    19    39    1
    34    20    21   ar
    35    20    40    1
    36    21    22   ar
    37    21    41    1
    38    22    17   ar
    39    22    42    1
    40    23    24   ar
    41    24    25   ar
    42    24    43    1
    43    25    26   ar
    44    25    44    1
    45    26    27   ar
    46    26    45    1
    47    27    28   ar
    48    27    46    1
    49    28    23   ar
    50    28    47    1
@<TRIPOS>MOLECULE
*****
 47 50 0 0 0
SMALL
GASTEIGER

@<TRIPOS>ATOM
      1 O          -0.2249    1.0210   -1.8681 O.2     1  UNL11      -0.2748
      2 C          -0.5203    0.2518   -0.8951 C.2     1  UNL11       0.2251
      3 N           0.4778   -0.1031    0.0167 N.am    1  UNL11      -0.3087
      4 C           0.1946   -0.9840    1.1262 C.3     1  UNL11       0.0602
      5 C          -1.2491   -0.7832    1.4977 C.2     1  UNL11       0.1319
      6 N          -2.0299    0.0838    0.8444 N.2     1  UNL11      -0.0060
      7 N          -3.2925    0.3064    1.1218 N.am    1  UNL11      -0.0355
      8 C          -3.8639   -0.3731    2.1295 C.2     1  UNL11       0.4383
      9 O          -5.0802   -0.1371    2.3725 O.2     1  UNL11      -0.2116
     10 C          -3.1166   -1.2848    2.8475 C.ar    1  UNL11       0.1005
     11 C          -3.7045   -1.9780    3.8779 C.ar    1  UNL11      -0.0441
     12 C          -2.9341   -2.8774    4.5721 C.ar    1  UNL11      -0.0608
     13 C          -1.6172   -3.0901    4.2607 C.ar    1  UNL11      -0.0611
     14 C          -1.0074   -2.3960    3.2204 C.ar    1  UNL11      -0.0517
     15 C          -1.7839   -1.5029    2.5356 C.ar    1  UNL11       0.0205
     16 C          -1.8939   -0.2291   -0.7688 C.3     1  UNL11       0.0855
     17 C          -2.9108    0.8495   -0.6325 C.ar    1  UNL11      -0.0312
     18 C          -4.2594    0.5855   -0.4879 C.ar    1  UNL11      -0.0575
     19 C          -5.1512    1.6248   -0.3491 C.ar    1  UNL11      -0.0615
     20 C          -4.7158    2.9336   -0.3527 C.ar    1  UNL11      -0.0617
     21 C          -3.3775    3.2223   -0.4959 C.ar    1  UNL11      -0.0615
     22 C          -2.5058    2.1856   -0.6320 C.ar    1  UNL11      -0.0575
     23 C          -2.0862   -1.3177    0.2394 C.ar    1  UNL11      -0.0312
     24 C          -3.3622   -1.8575    0.4257 C.ar    1  UNL11      -0.0575
     25 C          -3.6370   -2.8601    1.3220 C.ar    1  UNL11      -0.0615
     26 C          -2.5949   -3.3664    2.0849 C.ar    1  UNL11      -0.0617
     27 C          -1.3179   -2.8588    1.9299 C.ar    1  UNL11      -0.0615
     28 C          -1.0915   -1.8444    1.0092 C.ar    1  UNL11      -0.0575
     29 H           1.4360    0.2570   -0.0978 H       1  UNL11       0.1491
     30 H           0.8129   -0.7186    1.9984 H       1  UNL11       0.0529
     31 H           0.3701   -2.0321    0.7919 H       1  UNL11       0.0529
     32 H          -3.8703    1.0108    0.5673 H       1  UNL11       0.4829
     33 H          -4.7374   -1.7791    4.0857 H       1  UNL11       0.0627
     34 H          -3.4117   -3.4133    5.3783 H       1  UNL11       0.0618
     35 H          -1.0480   -3.7954    4.8198 H       1  UNL11       0.0618
     36 H           0.0365   -2.5525    2.9599 H       1  UNL11       0.0624
     37 H          -2.2073   -0.7602   -1.7480 H       1  UNL11       0.0492
     38 H          -4.6397   -0.4185   -0.4894 H       1  UNL11       0.0621
     39 H          -6.2205    1.4082   -0.2343 H       1  UNL11       0.0618
     40 H          -5.4042    3.7568   -0.2448 H       1  UNL11       0.0618
     41 H          -2.9814    4.2327   -0.5057 H       1  UNL11       0.0618
     42 H          -1.4322    2.4012   -0.7473 H       1  UNL11       0.0621
     43 H          -4.1532   -1.4428   -0.1826 H       1  UNL11       0.0621
     44 H          -4.6491   -3.2680    1.4503 H       1  UNL11       0.0618
     45 H          -2.7910   -4.1628    2.8028 H       1  UNL11       0.0618
     46 H          -0.5217   -3.2689    2.5351 H       1  UNL11       0.0618
     47 H          -0.0967   -1.4861    0.9197 H       1  UNL11       0.0621
@<TRIPOS>BOND
     1     1     2    2
     2     2     3   am
     3     2    16    1
     4     3     4    1
     5     3    29    1
     6     4     5    1
     7     4    30    1
     8     4    31    1
     9     5     6    2
    10     6     7    1
    11     7     8   am
    12     7    32    1
    13     8     9    2
    14     8    10    1
    15    10    11   ar
    16    11    12   ar
    17    11    33    1
    18    12    13   ar
    19    12    34    1
    20    13    14   ar
    21    13    35    1
    22    14    15   ar
    23    14    36    1
    24    15     5    1
    25    15    10   ar
    26    16    17    1
    27    16    23    1
    28    16    37    1
    29    17    18   ar
    30    18    19   ar
    31    18    38    1
    32    19    20   ar
    33    19    39    1
    34    20    21   ar
    35    20    40    1
    36    21    22   ar
    37    21    41    1
    38    22    17   ar
    39    22    42    1
    40    23    24   ar
    41    24    25   ar
    42    24    43    1
    43    25    26   ar
    44    25    44    1
    45    26    27   ar
    46    26    45    1
    47    27    28   ar
    48    27    46    1
    49    28    23   ar
    50    28    47    1
@<TRIPOS>MOLECULE
*****
 47 50 0 0 0
SMALL
GASTEIGER

@<TRIPOS>ATOM
      1 O          -0.3134    1.3867   -1.4380 O.2     1  UNL11      -0.2748
      2 C          -0.5203    0.2518   -0.8951 C.2     1  UNL11       0.2251
      3 N           0.5719   -0.4914   -0.4387 N.am    1  UNL11      -0.3087
      4 C           1.9212    0.0071   -0.5737 C.3     1  UNL11       0.0602
      5 C           1.8486    1.5087   -0.5260 C.2     1  UNL11       0.1319
      6 N           2.9421    2.2701   -0.6400 N.2     1  UNL11      -0.0060
      7 N           2.9452    3.5814   -0.6030 N.am    1  UNL11      -0.0355
      8 C           1.7794    4.2277   -0.4399 C.2     1  UNL11       0.4383
      9 O           1.8146    5.4893   -0.4082 O.2     1  UNL11      -0.2116
     10 C           0.6102    3.5045   -0.3154 C.ar    1  UNL11       0.1005
     11 C          -0.5807    4.1692   -0.1486 C.ar    1  UNL11      -0.0441
     12 C          -1.7252    3.4209   -0.0279 C.ar    1  UNL11      -0.0608
     13 C          -1.6994    2.0519   -0.0702 C.ar    1  UNL11      -0.0611
     14 C          -0.5016    1.3643   -0.2384 C.ar    1  UNL11      -0.0517
     15 C           0.6321    2.1193   -0.3576 C.ar    1  UNL11       0.0205
     16 C          -1.8939   -0.2291   -0.7688 C.3     1  UNL11       0.0855
     17 C          -2.9108    0.8495   -0.6325 C.ar    1  UNL11      -0.0312
     18 C          -2.5760    2.1902   -0.6268 C.ar    1  UNL11      -0.0575
     19 C          -3.5627    3.1434   -0.5146 C.ar    1  UNL11      -0.0615
     20 C          -4.8883    2.7778   -0.4067 C.ar    1  UNL11      -0.0617
     21 C          -5.2469    1.4489   -0.4094 C.ar    1  UNL11      -0.0615
     22 C          -4.2619    0.5159   -0.5212 C.ar    1  UNL11      -0.0575
     23 C          -2.0862   -1.3177    0.2394 C.ar    1  UNL11      -0.0312
     24 C          -0.9828   -1.7811    0.9621 C.ar    1  UNL11      -0.0575
     25 C          -1.0596   -2.7712    1.9096 C.ar    1  UNL11      -0.0615
     26 C          -2.2967   -3.3443    2.1657 C.ar    1  UNL11      -0.0617
     27 C          -3.4125   -2.9132    1.4716 C.ar    1  UNL11      -0.0615
     28 C          -3.2823   -1.9080    0.5227 C.ar    1  UNL11      -0.0575
     29 H           0.4246   -1.4072    0.0092 H       1  UNL11       0.1491
     30 H           2.3457   -0.2846   -1.5474 H       1  UNL11       0.0529
     31 H           2.5229   -0.3825    0.2791 H       1  UNL11       0.0529
     32 H           3.8484    4.1405   -0.6991 H       1  UNL11       0.4829
     33 H          -0.5528    5.2406   -0.1214 H       1  UNL11       0.0627
     34 H          -2.6519    3.9589    0.1025 H       1  UNL11       0.0618
     35 H          -2.6060    1.5019    0.0267 H       1  UNL11       0.0618
     36 H          -0.4630    0.2783   -0.2742 H       1  UNL11       0.0624
     37 H          -2.2073   -0.7602   -1.7480 H       1  UNL11       0.0492
     38 H          -1.5555    2.5157   -0.6990 H       1  UNL11       0.0621
     39 H          -3.2900    4.2061   -0.5111 H       1  UNL11       0.0618
     40 H          -5.6706    3.5148   -0.3182 H       1  UNL11       0.0618
     41 H          -6.2735    1.1063   -0.3273 H       1  UNL11       0.0618
     42 H          -4.5338   -0.5511   -0.5250 H       1  UNL11       0.0621
     43 H          -0.0331   -1.3157    0.7405 H       1  UNL11       0.0621
     44 H          -0.1774   -3.1185    2.4647 H       1  UNL11       0.0618
     45 H          -2.3802   -4.1323    2.9141 H       1  UNL11       0.0618
     46 H          -4.3659   -3.3743    1.6881 H       1  UNL11       0.0618
     47 H          -4.1638   -1.6050    0.0156 H       1  UNL11       0.0621
@<TRIPOS>BOND
     1     1     2    2
     2     2     3   am
     3     2    16    1
     4     3     4    1
     5     3    29    1
     6     4     5    1
     7     4    30    1
     8     4    31    1
     9     5     6    2
    10     6     7    1
    11     7     8   am
    12     7    32    1
    13     8     9    2
    14     8    10    1
    15    10    11   ar
    16    11    12   ar
    17    11    33    1
    18    12    13   ar
    19    12    34    1
    20    13    14   ar
    21    13    35    1
    22    14    15   ar
    23    14    36    1
    24    15     5    1
    25    15    10   ar
    26    16    17    1
    27    16    23    1
    28    16    37    1
    29    17    18   ar
    30    18    19   ar
    31    18    38    1
    32    19    20   ar
    33    19    39    1
    34    20    21   ar
    35    20    40    1
    36    21    22   ar
    37    21    41    1
    38    22    17   ar
    39    22    42    1
    40    23    24   ar
    41    24    25   ar
    42    24    43    1
    43    25    26   ar
    44    25    44    1
    45    26    27   ar
    46    26    45    1
    47    27    28   ar
    48    27    46    1
    49    28    23   ar
    50    28    47    1
@<TRIPOS>MOLECULE
*****
 47 50 0 0 0
SMALL
GASTEIGER

@<TRIPOS>ATOM
      1 O           0.4285   -0.4720   -0.4463 O.2     1  UNL11      -0.2748
      2 C          -0.5203    0.2518   -0.8951 C.2     1  UNL11       0.2251
      3 N          -0.2144    1.4775   -1.4930 N.am    1  UNL11      -0.3087
      4 C          -1.2564    2.3389   -2.0025 C.3     1  UNL11       0.0602
      5 C          -1.0038    2.5220   -3.4739 C.2     1  UNL11       0.1319
      6 N           0.0325    1.9409   -4.0877 N.2     1  UNL11      -0.0060
      7 N           0.3082    2.0642   -5.3642 N.am    1  UNL11      -0.0355
      8 C          -0.4930    2.8230   -6.1297 C.2     1  UNL11       0.4383
      9 O          -0.2019    2.9224   -7.3542 O.2     1  UNL11      -0.2116
     10 C          -1.5821    3.4530   -5.5620 C.ar    1  UNL11       0.1005
     11 C          -2.3995    4.2286   -6.3482 C.ar    1  UNL11      -0.0441
     12 C          -3.4741    4.8414   -5.7531 C.ar    1  UNL11      -0.0608
     13 C          -3.7385    4.6953   -4.4170 C.ar    1  UNL11      -0.0611
     14 C          -2.9203    3.9134   -3.6076 C.ar    1  UNL11      -0.0517
     15 C          -1.8531    3.3077   -4.2105 C.ar    1  UNL11       0.0205
     16 C          -1.8939   -0.2291   -0.7688 C.3     1  UNL11       0.0855
     17 C          -2.9108    0.8495   -0.6325 C.ar    1  UNL11      -0.0312
     18 C          -4.2594    0.5855   -0.4879 C.ar    1  UNL11      -0.0575
     19 C          -5.1512    1.6248   -0.3491 C.ar    1  UNL11      -0.0615
     20 C          -4.7158    2.9336   -0.3527 C.ar    1  UNL11      -0.0617
     21 C          -3.3775    3.2223   -0.4959 C.ar    1  UNL11      -0.0615
     22 C          -2.5058    2.1856   -0.6320 C.ar    1  UNL11      -0.0575
     23 C          -2.0862   -1.3177    0.2394 C.ar    1  UNL11      -0.0312
     24 C          -3.3622   -1.8575    0.4257 C.ar    1  UNL11      -0.0575
     25 C          -3.6370   -2.8601    1.3220 C.ar    1  UNL11      -0.0615
     26 C          -2.5949   -3.3664    2.0849 C.ar    1  UNL11      -0.0617
     27 C          -1.3179   -2.8588    1.9299 C.ar    1  UNL11      -0.0615
     28 C          -1.0915   -1.8444    1.0092 C.ar    1  UNL11      -0.0575
     29 H           0.7653    1.7859   -1.5708 H       1  UNL11       0.1491
     30 H          -1.2100    3.3286   -1.5211 H       1  UNL11       0.0529
     31 H          -2.2364    1.8366   -1.8337 H       1  UNL11       0.0529
     32 H           1.1496    1.5776   -5.8033 H       1  UNL11       0.4829
     33 H          -2.1540    4.3142   -7.3884 H       1  UNL11       0.0627
     34 H          -4.1058    5.4469   -6.3852 H       1  UNL11       0.0618
     35 H          -4.5809    5.1849   -3.9872 H       1  UNL11       0.0618
     36 H          -3.1156    3.7867   -2.5455 H       1  UNL11       0.0624
     37 H          -2.2073   -0.7602   -1.7480 H       1  UNL11       0.0492
     38 H          -4.6397   -0.4185   -0.4894 H       1  UNL11       0.0621
     39 H          -6.2205    1.4082   -0.2343 H       1  UNL11       0.0618
     40 H          -5.4042    3.7568   -0.2448 H       1  UNL11       0.0618
     41 H          -2.9814    4.2327   -0.5057 H       1  UNL11       0.0618
     42 H          -1.4322    2.4012   -0.7473 H       1  UNL11       0.0621
     43 H          -4.1532   -1.4428   -0.1826 H       1  UNL11       0.0621
     44 H          -4.6491   -3.2680    1.4503 H       1  UNL11       0.0618
     45 H          -2.7910   -4.1628    2.8028 H       1  UNL11       0.0618
     46 H          -0.5217   -3.2689    2.5351 H       1  UNL11       0.0618
     47 H          -0.0967   -1.4861    0.9197 H       1  UNL11       0.0621
@<TRIPOS>BOND
     1     1     2    2
     2     2     3   am
     3     2    16    1
     4     3     4    1
     5     3    29    1
     6     4     5    1
     7     4    30    1
     8     4    31    1
     9     5     6    2
    10     6     7    1
    11     7     8   am
    12     7    32    1
    13     8     9    2
    14     8    10    1
    15    10    11   ar
    16    11    12   ar
    17    11    33    1
    18    12    13   ar
    19    12    34    1
    20    13    14   ar
    21    13    35    1
    22    14    15   ar
    23    14    36    1
    24    15     5    1
    25    15    10   ar
    26    16    17    1
    27    16    23    1
    28    16    37    1
    29    17    18   ar
    30    18    19   ar
    31    18    38    1
    32    19    20   ar
    33    19    39    1
    34    20    21   ar
    35    20    40    1
    36    21    22   ar
    37    21    41    1
    38    22    17   ar
    39    22    42    1
    40    23    24   ar
    41    24    25   ar
    42    24    43    1
    43    25    26   ar
    44    25    44    1
    45    26    27   ar
    46    26    45    1
    47    27    28   ar
    48    27    46    1
    49    28    23   ar
    50    28    47    1
@<TRIPOS>MOLECULE
*****
 47 50 0 0 0
SMALL
GASTEIGER

@<TRIPOS>ATOM
      1 O          -0.2009    1.3540   -0.3394 O.2     1  UNL11      -0.2748
      2 C          -0.5203    0.2518   -0.8951 C.2     1  UNL11       0.2251
      3 N           0.4532   -0.4582   -1.6034 N.am    1  UNL11      -0.3087
      4 C           0.1350   -1.7039   -2.2626 C.3     1  UNL11       0.0602
      5 C          -1.3139   -1.6400   -2.6612 C.2     1  UNL11       0.1319
      6 N          -2.2865   -2.0703   -1.8505 N.2     1  UNL11      -0.0060
      7 N          -3.5655   -2.0448   -2.1408 N.am    1  UNL11      -0.0355
      8 C          -3.9500   -1.5561   -3.3312 C.2     1  UNL11       0.4383
      9 O          -5.1874   -1.5447   -3.5816 O.2     1  UNL11      -0.2116
     10 C          -2.9987   -1.0941   -4.2183 C.ar    1  UNL11       0.1005
     11 C          -3.3958   -0.5948   -5.4353 C.ar    1  UNL11      -0.0441
     12 C          -2.4253   -0.1434   -6.2947 C.ar    1  UNL11      -0.0608
     13 C          -1.0961   -0.1819   -5.9654 C.ar    1  UNL11      -0.0611
     14 C          -0.6781   -0.6845   -4.7372 C.ar    1  UNL11      -0.0517
     15 C          -1.6530   -1.1314   -3.8890 C.ar    1  UNL11       0.0205
     16 C          -1.8939   -0.2291   -0.7688 C.3     1  UNL11       0.0855
     17 C          -2.9108    0.8495   -0.6325 C.ar    1  UNL11      -0.0312
     18 C          -2.5760    2.1902   -0.6268 C.ar    1  UNL11      -0.0575
     19 C          -3.5627    3.1434   -0.5146 C.ar    1  UNL11      -0.0615
     20 C          -4.8883    2.7778   -0.4067 C.ar    1  UNL11      -0.0617
     21 C          -5.2469    1.4489   -0.4094 C.ar    1  UNL11      -0.0615
     22 C          -4.2619    0.5159   -0.5212 C.ar    1  UNL11      -0.0575
     23 C          -2.0862   -1.3177    0.2394 C.ar    1  UNL11      -0.0312
     24 C          -2.9544   -1.1064    1.3146 C.ar    1  UNL11      -0.0575
     25 C          -3.1991   -2.0445    2.2862 C.ar    1  UNL11      -0.0615
     26 C          -2.5518   -3.2683    2.1991 C.ar    1  UNL11      -0.0617
     27 C          -1.6852   -3.5160    1.1502 C.ar    1  UNL11      -0.0615
     28 C          -1.4714   -2.5340    0.1923 C.ar    1  UNL11      -0.0575
     29 H           1.4144   -0.0941   -1.6698 H       1  UNL11       0.1491
     30 H           0.2629   -2.5513   -1.5705 H       1  UNL11       0.0529
     31 H           0.7844   -1.7968   -3.1629 H       1  UNL11       0.0529
     32 H          -4.3008   -2.4017   -1.4557 H       1  UNL11       0.4829
     33 H          -4.4463   -0.5843   -5.6498 H       1  UNL11       0.0627
     34 H          -2.7546    0.2455   -7.2462 H       1  UNL11       0.0618
     35 H          -0.3689    0.1766   -6.6558 H       1  UNL11       0.0618
     36 H           0.3725   -0.7225   -4.4598 H       1  UNL11       0.0624
     37 H          -2.2073   -0.7602   -1.7480 H       1  UNL11       0.0492
     38 H          -1.5555    2.5157   -0.6990 H       1  UNL11       0.0621
     39 H          -3.2900    4.2061   -0.5111 H       1  UNL11       0.0618
     40 H          -5.6706    3.5148   -0.3182 H       1  UNL11       0.0618
     41 H          -6.2735    1.1063   -0.3273 H       1  UNL11       0.0618
     42 H          -4.5338   -0.5511   -0.5250 H       1  UNL11       0.0621
     43 H          -3.4436   -0.1437    1.3554 H       1  UNL11       0.0621
     44 H          -3.8863   -1.8545    3.1221 H       1  UNL11       0.0618
     45 H          -2.7316   -4.0277    2.9600 H       1  UNL11       0.0618
     46 H          -1.1922   -4.4768    1.1029 H       1  UNL11       0.0618
     47 H          -0.8015   -2.7664   -0.5971 H       1  UNL11       0.0621
@<TRIPOS>BOND
     1     1     2    2
     2     2     3   am
     3     2    16    1
     4     3     4    1
     5     3    29    1
     6     4     5    1
     7     4    30    1
     8     4    31    1
     9     5     6    2
    10     6     7    1
    11     7     8   am
    12     7    32    1
    13     8     9    2
    14     8    10    1
    15    10    11   ar
    16    11    12   ar
    17    11    33    1
    18    12    13   ar
    19    12    34    1
    20    13    14   ar
    21    13    35    1
    22    14    15   ar
    23    14    36    1
    24    15     5    1
    25    15    10   ar
    26    16    17    1
    27    16    23    1
    28    16    37    1
    29    17    18   ar
    30    18    19   ar
    31    18    38    1
    32    19    20   ar
    33    19    39    1
    34    20    21   ar
    35    20    40    1
    36    21    22   ar
    37    21    41    1
    38    22    17   ar
    39    22    42    1
    40    23    24   ar
    41    24    25   ar
    42    24    43    1
    43    25    26   ar
    44    25    44    1
    45    26    27   ar
    46    26    45    1
    47    27    28   ar
    48    27    46    1
    49    28    23   ar
    50    28    47    1
@<TRIPOS>MOLECULE
*****
 47 50 0 0 0
SMALL
GASTEIGER

@<TRIPOS>ATOM
      1 O           0.4285   -0.4720   -0.4463 O.2     1  UNL11      -0.2748
      2 C          -0.5203    0.2518   -0.8951 C.2     1  UNL11       0.2251
      3 N          -0.2144    1.4775   -1.4930 N.am    1  UNL11      -0.3087
      4 C          -1.2564    2.3389   -2.0025 C.3     1  UNL11       0.0602
      5 C          -1.4809    1.9638   -3.4417 C.2     1  UNL11       0.1319
      6 N          -0.7799    0.9905   -4.0329 N.2     1  UNL11      -0.0060
      7 N          -0.9258    0.6195   -5.2826 N.am    1  UNL11      -0.0355
      8 C          -1.8383    1.2471   -6.0424 C.2     1  UNL11       0.4383
      9 O          -1.9556    0.8678   -7.2409 O.2     1  UNL11      -0.2116
     10 C          -2.5982    2.2622   -5.4969 C.ar    1  UNL11       0.1005
     11 C          -3.5307    2.9020   -6.2772 C.ar    1  UNL11      -0.0441
     12 C          -4.2700    3.9071   -5.7048 C.ar    1  UNL11      -0.0608
     13 C          -4.0966    4.2742   -4.3965 C.ar    1  UNL11      -0.0611
     14 C          -3.1565    3.6360   -3.5935 C.ar    1  UNL11      -0.0517
     15 C          -2.4258    2.6366   -4.1736 C.ar    1  UNL11       0.0205
     16 C          -1.8939   -0.2291   -0.7688 C.3     1  UNL11       0.0855
     17 C          -2.9108    0.8495   -0.6325 C.ar    1  UNL11      -0.0312
     18 C          -2.6277    2.0681   -0.0456 C.ar    1  UNL11      -0.0575
     19 C          -3.6051    3.0337    0.0369 C.ar    1  UNL11      -0.0615
     20 C          -4.8706    2.8013   -0.4602 C.ar    1  UNL11      -0.0617
     21 C          -5.1773    1.5954   -1.0488 C.ar    1  UNL11      -0.0615
     22 C          -4.2018    0.6488   -1.1245 C.ar    1  UNL11      -0.0575
     23 C          -2.0862   -1.3177    0.2394 C.ar    1  UNL11      -0.0312
     24 C          -0.9828   -1.7811    0.9621 C.ar    1  UNL11      -0.0575
     25 C          -1.0596   -2.7712    1.9096 C.ar    1  UNL11      -0.0615
     26 C          -2.2967   -3.3443    2.1657 C.ar    1  UNL11      -0.0617
     27 C          -3.4125   -2.9132    1.4716 C.ar    1  UNL11      -0.0615
     28 C          -3.2823   -1.9080    0.5227 C.ar    1  UNL11      -0.0575
     29 H           0.7653    1.7859   -1.5708 H       1  UNL11       0.1491
     30 H          -0.9380    3.3928   -1.9688 H       1  UNL11       0.0529
     31 H          -2.1788    2.1607   -1.4037 H       1  UNL11       0.0529
     32 H          -0.3389   -0.1647   -5.7045 H       1  UNL11       0.4829
     33 H          -3.6318    2.5813   -7.2953 H       1  UNL11       0.0627
     34 H          -4.9980    4.3991   -6.3318 H       1  UNL11       0.0618
     35 H          -4.6871    5.0583   -3.9837 H       1  UNL11       0.0618
     36 H          -3.0059    3.9147   -2.5533 H       1  UNL11       0.0624
     37 H          -2.2073   -0.7602   -1.7480 H       1  UNL11       0.0492
     38 H          -1.6583    2.2848    0.3617 H       1  UNL11       0.0621
     39 H          -3.3735    3.9991    0.5037 H       1  UNL11       0.0618
     40 H          -5.6451    3.5494   -0.4018 H       1  UNL11       0.0618
     41 H          -6.1556    1.3601   -1.4556 H       1  UNL11       0.0618
     42 H          -4.4326   -0.3207   -1.5927 H       1  UNL11       0.0621
     43 H          -0.0331   -1.3157    0.7405 H       1  UNL11       0.0621
     44 H          -0.1774   -3.1185    2.4647 H       1  UNL11       0.0618
     45 H          -2.3802   -4.1323    2.9141 H       1  UNL11       0.0618
     46 H          -4.3659   -3.3743    1.6881 H       1  UNL11       0.0618
     47 H          -4.1638   -1.6050    0.0156 H       1  UNL11       0.0621
@<TRIPOS>BOND
     1     1     2    2
     2     2     3   am
     3     2    16    1
     4     3     4    1
     5     3    29    1
     6     4     5    1
     7     4    30    1
     8     4    31    1
     9     5     6    2
    10     6     7    1
    11     7     8   am
    12     7    32    1
    13     8     9    2
    14     8    10    1
    15    10    11   ar
    16    11    12   ar
    17    11    33    1
    18    12    13   ar
    19    12    34    1
    20    13    14   ar
    21    13    35    1
    22    14    15   ar
    23    14    36    1
    24    15     5    1
    25    15    10   ar
    26    16    17    1
    27    16    23    1
    28    16    37    1
    29    17    18   ar
    30    18    19   ar
    31    18    38    1
    32    19    20   ar
    33    19    39    1
    34    20    21   ar
    35    20    40    1
    36    21    22   ar
    37    21    41    1
    38    22    17   ar
    39    22    42    1
    40    23    24   ar
    41    24    25   ar
    42    24    43    1
    43    25    26   ar
    44    25    44    1
    45    26    27   ar
    46    26    45    1
    47    27    28   ar
    48    27    46    1
    49    28    23   ar
    50    28    47    1
@<TRIPOS>MOLECULE
*****
 47 50 0 0 0
SMALL
GASTEIGER

@<TRIPOS>ATOM
      1 O          -0.3046    1.5083   -0.8797 O.2     1  UNL11      -0.2748
      2 C          -0.5203    0.2518   -0.8951 C.2     1  UNL11       0.2251
      3 N           0.5629   -0.6211   -1.0304 N.am    1  UNL11      -0.3087
      4 C           0.3667   -2.0519   -1.0682 C.3     1  UNL11       0.0602
      5 C          -0.3028   -2.4445    0.2202 C.2     1  UNL11       0.1319
      6 N          -1.1157   -1.6080    0.8742 N.2     1  UNL11      -0.0060
      7 N          -1.7254   -1.8890    2.0012 N.am    1  UNL11      -0.0355
      8 C          -1.5351   -3.0966    2.5571 C.2     1  UNL11       0.4383
      9 O          -2.1352   -3.3375    3.6415 O.2     1  UNL11      -0.2116
     10 C          -0.7081   -4.0107    1.9360 C.ar    1  UNL11       0.1005
     11 C          -0.5157   -5.2452    2.5077 C.ar    1  UNL11      -0.0441
     12 C           0.3126   -6.1314    1.8649 C.ar    1  UNL11      -0.0608
     13 C           0.9368   -5.8113    0.6883 C.ar    1  UNL11      -0.0611
     14 C           0.7522   -4.5655    0.0969 C.ar    1  UNL11      -0.0517
     15 C          -0.0747   -3.6908    0.7454 C.ar    1  UNL11       0.0205
     16 C          -1.8939   -0.2291   -0.7688 C.3     1  UNL11       0.0855
     17 C          -2.9108    0.8495   -0.6325 C.ar    1  UNL11      -0.0312
     18 C          -4.2594    0.5855   -0.4879 C.ar    1  UNL11      -0.0575
     19 C          -5.1512    1.6248   -0.3491 C.ar    1  UNL11      -0.0615
     20 C          -4.7158    2.9336   -0.3527 C.ar    1  UNL11      -0.0617
     21 C          -3.3775    3.2223   -0.4959 C.ar    1  UNL11      -0.0615
     22 C          -2.5058    2.1856   -0.6320 C.ar    1  UNL11      -0.0575
     23 C          -2.0862   -1.3177    0.2394 C.ar    1  UNL11      -0.0312
     24 C          -2.3948   -0.9780    1.5599 C.ar    1  UNL11      -0.0575
     25 C          -2.5935   -1.9039    2.5535 C.ar    1  UNL11      -0.0615
     26 C          -2.4829   -3.2490    2.2331 C.ar    1  UNL11      -0.0617
     27 C          -2.1790   -3.6257    0.9376 C.ar    1  UNL11      -0.0615
     28 C          -1.9873   -2.6504   -0.0319 C.ar    1  UNL11      -0.0575
     29 H           1.5202   -0.2500   -1.1125 H       1  UNL11       0.1491
     30 H           1.3352   -2.5738   -1.1239 H       1  UNL11       0.0529
     31 H          -0.2881   -2.2904   -1.9374 H       1  UNL11       0.0529
     32 H          -2.3645   -1.1830    2.4815 H       1  UNL11       0.4829
     33 H          -1.0245   -5.4517    3.4286 H       1  UNL11       0.0627
     34 H           0.4526   -7.0965    2.3276 H       1  UNL11       0.0618
     35 H           1.5732   -6.5225    0.2159 H       1  UNL11       0.0618
     36 H           1.2399   -4.2950   -0.8365 H       1  UNL11       0.0624
     37 H          -2.2073   -0.7602   -1.7480 H       1  UNL11       0.0492
     38 H          -4.6397   -0.4185   -0.4894 H       1  UNL11       0.0621
     39 H          -6.2205    1.4082   -0.2343 H       1  UNL11       0.0618
     40 H          -5.4042    3.7568   -0.2448 H       1  UNL11       0.0618
     41 H          -2.9814    4.2327   -0.5057 H       1  UNL11       0.0618
     42 H          -1.4322    2.4012   -0.7473 H       1  UNL11       0.0621
     43 H          -2.4741    0.0772    1.7789 H       1  UNL11       0.0621
     44 H          -2.8352   -1.6117    3.5847 H       1  UNL11       0.0618
     45 H          -2.6367   -4.0011    3.0069 H       1  UNL11       0.0618
     46 H          -2.0980   -4.6796    0.7113 H       1  UNL11       0.0618
     47 H          -1.7591   -2.9828   -1.0134 H       1  UNL11       0.0621
@<TRIPOS>BOND
     1     1     2    2
     2     2     3   am
     3     2    16    1
     4     3     4    1
     5     3    29    1
     6     4     5    1
     7     4    30    1
     8     4    31    1
     9     5     6    2
    10     6     7    1
    11     7     8   am
    12     7    32    1
    13     8     9    2
    14     8    10    1
    15    10    11   ar
    16    11    12   ar
    17    11    33    1
    18    12    13   ar
    19    12    34    1
    20    13    14   ar
    21    13    35    1
    22    14    15   ar
    23    14    36    1
    24    15     5    1
    25    15    10   ar
    26    16    17    1
    27    16    23    1
    28    16    37    1
    29    17    18   ar
    30    18    19   ar
    31    18    38    1
    32    19    20   ar
    33    19    39    1
    34    20    21   ar
    35    20    40    1
    36    21    22   ar
    37    21    41    1
    38    22    17   ar
    39    22    42    1
    40    23    24   ar
    41    24    25   ar
    42    24    43    1
    43    25    26   ar
    44    25    44    1
    45    26    27   ar
    46    26    45    1
    47    27    28   ar
    48    27    46    1
    49    28    23   ar
    50    28    47    1
@<TRIPOS>MOLECULE
*****
 47 50 0 0 0
SMALL
GASTEIGER

@<TRIPOS>ATOM
      1 O          -0.3046    1.5083   -0.8797 O.2     1  UNL11      -0.2748
      2 C          -0.5203    0.2518   -0.8951 C.2     1  UNL11       0.2251
      3 N           0.5629   -0.6211   -1.0304 N.am    1  UNL11      -0.3087
      4 C           0.3667   -2.0519   -1.0682 C.3     1  UNL11       0.0602
      5 C           0.1816   -2.4386   -2.5100 C.2     1  UNL11       0.1319
      6 N           0.7529   -1.7484   -3.5027 N.2     1  UNL11      -0.0060
      7 N           0.6273   -2.0322   -4.7772 N.am    1  UNL11      -0.0355
      8 C          -0.1234   -3.0866   -5.1352 C.2     1  UNL11       0.4383
      9 O          -0.2252   -3.3344   -6.3690 O.2     1  UNL11      -0.2116
     10 C          -0.7430   -3.8446   -4.1621 C.ar    1  UNL11       0.1005
     11 C          -1.5103   -4.9226   -4.5322 C.ar    1  UNL11      -0.0441
     12 C          -2.1130   -5.6558   -3.5404 C.ar    1  UNL11      -0.0608
     13 C          -1.9647   -5.3366   -2.2165 C.ar    1  UNL11      -0.0611
     14 C          -1.1911   -4.2482   -1.8258 C.ar    1  UNL11      -0.0517
     15 C          -0.5955   -3.5250   -2.8216 C.ar    1  UNL11       0.0205
     16 C          -1.8939   -0.2291   -0.7688 C.3     1  UNL11       0.0855
     17 C          -2.9108    0.8495   -0.6325 C.ar    1  UNL11      -0.0312
     18 C          -4.2594    0.5855   -0.4879 C.ar    1  UNL11      -0.0575
     19 C          -5.1512    1.6248   -0.3491 C.ar    1  UNL11      -0.0615
     20 C          -4.7158    2.9336   -0.3527 C.ar    1  UNL11      -0.0617
     21 C          -3.3775    3.2223   -0.4959 C.ar    1  UNL11      -0.0615
     22 C          -2.5058    2.1856   -0.6320 C.ar    1  UNL11      -0.0575
     23 C          -2.0862   -1.3177    0.2394 C.ar    1  UNL11      -0.0312
     24 C          -2.9544   -1.1064    1.3146 C.ar    1  UNL11      -0.0575
     25 C          -3.1991   -2.0445    2.2862 C.ar    1  UNL11      -0.0615
     26 C          -2.5518   -3.2683    2.1991 C.ar    1  UNL11      -0.0617
     27 C          -1.6852   -3.5160    1.1502 C.ar    1  UNL11      -0.0615
     28 C          -1.4714   -2.5340    0.1923 C.ar    1  UNL11      -0.0575
     29 H           1.5202   -0.2500   -1.1125 H       1  UNL11       0.1491
     30 H          -0.5459   -2.3319   -0.5186 H       1  UNL11       0.0529
     31 H           1.2756   -2.5390   -0.6465 H       1  UNL11       0.0529
     32 H           1.1059   -1.4468   -5.5294 H       1  UNL11       0.4829
     33 H          -1.5980   -5.1347   -5.5795 H       1  UNL11       0.0627
     34 H          -2.7120   -6.4992   -3.8486 H       1  UNL11       0.0618
     35 H          -2.4463   -5.9268   -1.4723 H       1  UNL11       0.0618
     36 H          -1.0629   -3.9808   -0.7797 H       1  UNL11       0.0624
     37 H          -2.2073   -0.7602   -1.7480 H       1  UNL11       0.0492
     38 H          -4.6397   -0.4185   -0.4894 H       1  UNL11       0.0621
     39 H          -6.2205    1.4082   -0.2343 H       1  UNL11       0.0618
     40 H          -5.4042    3.7568   -0.2448 H       1  UNL11       0.0618
     41 H          -2.9814    4.2327   -0.5057 H       1  UNL11       0.0618
     42 H          -1.4322    2.4012   -0.7473 H       1  UNL11       0.0621
     43 H          -3.4436   -0.1437    1.3554 H       1  UNL11       0.0621
     44 H          -3.8863   -1.8545    3.1221 H       1  UNL11       0.0618
     45 H          -2.7316   -4.0277    2.9600 H       1  UNL11       0.0618
     46 H          -1.1922   -4.4768    1.1029 H       1  UNL11       0.0618
     47 H          -0.8015   -2.7664   -0.5971 H       1  UNL11       0.0621
@<TRIPOS>BOND
     1     1     2    2
     2     2     3   am
     3     2    16    1
     4     3     4    1
     5     3    29    1
     6     4     5    1
     7     4    30    1
     8     4    31    1
     9     5     6    2
    10     6     7    1
    11     7     8   am
    12     7    32    1
    13     8     9    2
    14     8    10    1
    15    10    11   ar
    16    11    12   ar
    17    11    33    1
    18    12    13   ar
    19    12    34    1
    20    13    14   ar
    21    13    35    1
    22    14    15   ar
    23    14    36    1
    24    15     5    1
    25    15    10   ar
    26    16    17    1
    27    16    23    1
    28    16    37    1
    29    17    18   ar
    30    18    19   ar
    31    18    38    1
    32    19    20   ar
    33    19    39    1
    34    20    21   ar
    35    20    40    1
    36    21    22   ar
    37    21    41    1
    38    22    17   ar
    39    22    42    1
    40    23    24   ar
    41    24    25   ar
    42    24    43    1
    43    25    26   ar
    44    25    44    1
    45    26    27   ar
    46    26    45    1
    47    27    28   ar
    48    27    46    1
    49    28    23   ar
    50    28    47    1
@<TRIPOS>MOLECULE
*****
 47 50 0 0 0
SMALL
GASTEIGER

@<TRIPOS>ATOM
      1 O           0.4194   -0.5992   -1.0305 O.2     1  UNL11      -0.2748
      2 C          -0.5203    0.2518   -0.8951 C.2     1  UNL11       0.2251
      3 N          -0.2050    1.6133   -0.8738 N.am    1  UNL11      -0.3087
      4 C           1.1617    2.0638   -1.0023 C.3     1  UNL11       0.0602
      5 C           1.6651    1.5861   -2.3368 C.2     1  UNL11       0.1319
      6 N           1.5437    2.3293   -3.4419 N.2     1  UNL11      -0.0060
      7 N           1.9582    1.9683   -4.6329 N.am    1  UNL11      -0.0355
      8 C           2.5497    0.7713   -4.7778 C.2     1  UNL11       0.4383
      9 O           2.9377    0.4520   -5.9360 O.2     1  UNL11      -0.2116
     10 C           2.7083   -0.0486   -3.6787 C.ar    1  UNL11       0.1005
     11 C           3.3138   -1.2726   -3.8308 C.ar    1  UNL11      -0.0441
     12 C           3.4563   -2.0640   -2.7182 C.ar    1  UNL11      -0.0608
     13 C           3.0140   -1.6616   -1.4858 C.ar    1  UNL11      -0.0611
     14 C           2.3988   -0.4253   -1.3156 C.ar    1  UNL11      -0.0517
     15 C           2.2621    0.3548   -2.4301 C.ar    1  UNL11       0.0205
     16 C          -1.8939   -0.2291   -0.7688 C.3     1  UNL11       0.0855
     17 C          -2.9108    0.8495   -0.6325 C.ar    1  UNL11      -0.0312
     18 C          -4.2594    0.5855   -0.4879 C.ar    1  UNL11      -0.0575
     19 C          -5.1512    1.6248   -0.3491 C.ar    1  UNL11      -0.0615
     20 C          -4.7158    2.9336   -0.3527 C.ar    1  UNL11      -0.0617
     21 C          -3.3775    3.2223   -0.4959 C.ar    1  UNL11      -0.0615
     22 C          -2.5058    2.1856   -0.6320 C.ar    1  UNL11      -0.0575
     23 C          -2.0862   -1.3177    0.2394 C.ar    1  UNL11      -0.0312
     24 C          -2.3948   -0.9780    1.5599 C.ar    1  UNL11      -0.0575
     25 C          -2.5935   -1.9039    2.5535 C.ar    1  UNL11      -0.0615
     26 C          -2.4829   -3.2490    2.2331 C.ar    1  UNL11      -0.0617
     27 C          -2.1790   -3.6257    0.9376 C.ar    1  UNL11      -0.0615
     28 C          -1.9873   -2.6504   -0.0319 C.ar    1  UNL11      -0.0575
     29 H          -0.9509    2.3164   -0.7726 H       1  UNL11       0.1491
     30 H           1.7921    1.6156   -0.2180 H       1  UNL11       0.0529
     31 H           1.1667    3.1769   -0.9584 H       1  UNL11       0.0529
     32 H           1.8358    2.6015   -5.4824 H       1  UNL11       0.4829
     33 H           3.6441   -1.5455   -4.8136 H       1  UNL11       0.0627
     34 H           3.9342   -3.0221   -2.8554 H       1  UNL11       0.0618
     35 H           3.1404   -2.3005   -0.6433 H       1  UNL11       0.0618
     36 H           2.0418   -0.0904   -0.3447 H       1  UNL11       0.0624
     37 H          -2.2073   -0.7602   -1.7480 H       1  UNL11       0.0492
     38 H          -4.6397   -0.4185   -0.4894 H       1  UNL11       0.0621
     39 H          -6.2205    1.4082   -0.2343 H       1  UNL11       0.0618
     40 H          -5.4042    3.7568   -0.2448 H       1  UNL11       0.0618
     41 H          -2.9814    4.2327   -0.5057 H       1  UNL11       0.0618
     42 H          -1.4322    2.4012   -0.7473 H       1  UNL11       0.0621
     43 H          -2.4741    0.0772    1.7789 H       1  UNL11       0.0621
     44 H          -2.8352   -1.6117    3.5847 H       1  UNL11       0.0618
     45 H          -2.6367   -4.0011    3.0069 H       1  UNL11       0.0618
     46 H          -2.0980   -4.6796    0.7113 H       1  UNL11       0.0618
     47 H          -1.7591   -2.9828   -1.0134 H       1  UNL11       0.0621
@<TRIPOS>BOND
     1     1     2    2
     2     2     3   am
     3     2    16    1
     4     3     4    1
     5     3    29    1
     6     4     5    1
     7     4    30    1
     8     4    31    1
     9     5     6    2
    10     6     7    1
    11     7     8   am
    12     7    32    1
    13     8     9    2
    14     8    10    1
    15    10    11   ar
    16    11    12   ar
    17    11    33    1
    18    12    13   ar
    19    12    34    1
    20    13    14   ar
    21    13    35    1
    22    14    15   ar
    23    14    36    1
    24    15     5    1
    25    15    10   ar
    26    16    17    1
    27    16    23    1
    28    16    37    1
    29    17    18   ar
    30    18    19   ar
    31    18    38    1
    32    19    20   ar
    33    19    39    1
    34    20    21   ar
    35    20    40    1
    36    21    22   ar
    37    21    41    1
    38    22    17   ar
    39    22    42    1
    40    23    24   ar
    41    24    25   ar
    42    24    43    1
    43    25    26   ar
    44    25    44    1
    45    26    27   ar
    46    26    45    1
    47    27    28   ar
    48    27    46    1
    49    28    23   ar
    50    28    47    1
@<TRIPOS>MOLECULE
*****
 47 50 0 0 0
SMALL
GASTEIGER

@<TRIPOS>ATOM
      1 O          -0.0534    0.4809   -2.0592 O.2     1  UNL11      -0.2748
      2 C          -0.5203    0.2518   -0.8951 C.2     1  UNL11       0.2251
      3 N           0.2958    0.4697    0.2184 N.am    1  UNL11      -0.3087
      4 C          -0.1839    0.2099    1.5562 C.3     1  UNL11       0.0602
      5 C           0.5171    1.1718    2.4759 C.2     1  UNL11       0.1319
      6 N           0.0057    2.3746    2.7586 N.2     1  UNL11      -0.0060
      7 N           0.5689    3.2578    3.5483 N.am    1  UNL11      -0.0355
      8 C           1.7431    2.9551    4.1257 C.2     1  UNL11       0.4383
      9 O           2.2602    3.8253    4.8802 O.2     1  UNL11      -0.2116
     10 C           2.3291    1.7301    3.8782 C.ar    1  UNL11       0.1005
     11 C           3.5304    1.4239    4.4705 C.ar    1  UNL11      -0.0441
     12 C           4.0867    0.1976    4.2040 C.ar    1  UNL11      -0.0608
     13 C           3.4763   -0.7060    3.3748 C.ar    1  UNL11      -0.0611
     14 C           2.2598   -0.4109    2.7675 C.ar    1  UNL11      -0.0517
     15 C           1.7148    0.8131    3.0399 C.ar    1  UNL11       0.0205
     16 C          -1.8939   -0.2291   -0.7688 C.3     1  UNL11       0.0855
     17 C          -2.9108    0.8495   -0.6325 C.ar    1  UNL11      -0.0312
     18 C          -3.5423    1.4176   -1.7224 C.ar    1  UNL11      -0.0575
     19 C          -4.4872    2.4004   -1.5328 C.ar    1  UNL11      -0.0615
     20 C          -4.8146    2.8292   -0.2633 C.ar    1  UNL11      -0.0617
     21 C          -4.1991    2.2792    0.8382 C.ar    1  UNL11      -0.0615
     22 C          -3.2665    1.3079    0.6373 C.ar    1  UNL11      -0.0575
     23 C          -2.0862   -1.3177    0.2394 C.ar    1  UNL11      -0.0312
     24 C          -1.0331   -2.1992    0.5011 C.ar    1  UNL11      -0.0575
     25 C          -1.1119   -3.2247    1.4100 C.ar    1  UNL11      -0.0615
     26 C          -2.2985   -3.3980    2.1074 C.ar    1  UNL11      -0.0617
     27 C          -3.3635   -2.5465    1.8769 C.ar    1  UNL11      -0.0615
     28 C          -3.2336   -1.5238    0.9469 C.ar    1  UNL11      -0.0575
     29 H           1.2588    0.8139    0.0956 H       1  UNL11       0.1491
     30 H           0.0764   -0.8139    1.8684 H       1  UNL11       0.0529
     31 H          -1.2839    0.3856    1.5716 H       1  UNL11       0.0529
     32 H           0.1165    4.2045    3.7398 H       1  UNL11       0.4829
     33 H           3.9712    2.1616    5.1118 H       1  UNL11       0.0627
     34 H           5.0304   -0.0267    4.6775 H       1  UNL11       0.0618
     35 H           3.9354   -1.6488    3.1894 H       1  UNL11       0.0618
     36 H           1.7618   -1.1163    2.1068 H       1  UNL11       0.0624
     37 H          -2.2073   -0.7602   -1.7480 H       1  UNL11       0.0492
     38 H          -3.3092    1.1186   -2.7269 H       1  UNL11       0.0621
     39 H          -4.9850    2.8470   -2.4025 H       1  UNL11       0.0618
     40 H          -5.5530    3.5983   -0.1012 H       1  UNL11       0.0618
     41 H          -4.4185    2.5791    1.8580 H       1  UNL11       0.0618
     42 H          -2.7659    0.8586    1.5090 H       1  UNL11       0.0621
     43 H          -0.1221   -2.0391   -0.0575 H       1  UNL11       0.0621
     44 H          -0.2698   -3.9048    1.5981 H       1  UNL11       0.0618
     45 H          -2.3827   -4.2062    2.8339 H       1  UNL11       0.0618
     46 H          -4.2781   -2.7007    2.4321 H       1  UNL11       0.0618
     47 H          -4.0736   -0.8916    0.8031 H       1  UNL11       0.0621
@<TRIPOS>BOND
     1     1     2    2
     2     2     3   am
     3     2    16    1
     4     3     4    1
     5     3    29    1
     6     4     5    1
     7     4    30    1
     8     4    31    1
     9     5     6    2
    10     6     7    1
    11     7     8   am
    12     7    32    1
    13     8     9    2
    14     8    10    1
    15    10    11   ar
    16    11    12   ar
    17    11    33    1
    18    12    13   ar
    19    12    34    1
    20    13    14   ar
    21    13    35    1
    22    14    15   ar
    23    14    36    1
    24    15     5    1
    25    15    10   ar
    26    16    17    1
    27    16    23    1
    28    16    37    1
    29    17    18   ar
    30    18    19   ar
    31    18    38    1
    32    19    20   ar
    33    19    39    1
    34    20    21   ar
    35    20    40    1
    36    21    22   ar
    37    21    41    1
    38    22    17   ar
    39    22    42    1
    40    23    24   ar
    41    24    25   ar
    42    24    43    1
    43    25    26   ar
    44    25    44    1
    45    26    27   ar
    46    26    45    1
    47    27    28   ar
    48    27    46    1
    49    28    23   ar
    50    28    47    1
@<TRIPOS>MOLECULE
*****
 47 50 0 0 0
SMALL
GASTEIGER

@<TRIPOS>ATOM
      1 O           0.1740    0.4147    0.1618 O.2     1  UNL11      -0.2748
      2 C          -0.5203    0.2518   -0.8951 C.2     1  UNL11       0.2251
      3 N           0.0558    0.5368   -2.1362 N.am    1  UNL11      -0.3087
      4 C          -0.6962    0.3821   -3.3601 C.3     1  UNL11       0.0602
      5 C          -1.6982   -0.7163   -3.1319 C.2     1  UNL11       0.1319
      6 N          -1.4136   -1.9952   -3.3994 N.2     1  UNL11      -0.0060
      7 N          -2.2434   -2.9962   -3.2258 N.am    1  UNL11      -0.0355
      8 C          -3.4722   -2.7434   -2.7463 C.2     1  UNL11       0.4383
      9 O          -4.2480   -3.7270   -2.5902 O.2     1  UNL11      -0.2116
     10 C          -3.8342   -1.4451   -2.4482 C.ar    1  UNL11       0.1005
     11 C          -5.0922   -1.1903   -1.9579 C.ar    1  UNL11      -0.0441
     12 C          -5.4210    0.1114   -1.6714 C.ar    1  UNL11      -0.0608
     13 C          -4.5341    1.1378   -1.8625 C.ar    1  UNL11      -0.0611
     14 C          -3.2567    0.8960   -2.3582 C.ar    1  UNL11      -0.0517
     15 C          -2.9398   -0.4038   -2.6401 C.ar    1  UNL11       0.0205
     16 C          -1.8939   -0.2291   -0.7688 C.3     1  UNL11       0.0855
     17 C          -2.9108    0.8495   -0.6325 C.ar    1  UNL11      -0.0312
     18 C          -2.5760    2.1902   -0.6268 C.ar    1  UNL11      -0.0575
     19 C          -3.5627    3.1434   -0.5146 C.ar    1  UNL11      -0.0615
     20 C          -4.8883    2.7778   -0.4067 C.ar    1  UNL11      -0.0617
     21 C          -5.2469    1.4489   -0.4094 C.ar    1  UNL11      -0.0615
     22 C          -4.2619    0.5159   -0.5212 C.ar    1  UNL11      -0.0575
     23 C          -2.0862   -1.3177    0.2394 C.ar    1  UNL11      -0.0312
     24 C          -0.9828   -1.7811    0.9621 C.ar    1  UNL11      -0.0575
     25 C          -1.0596   -2.7712    1.9096 C.ar    1  UNL11      -0.0615
     26 C          -2.2967   -3.3443    2.1657 C.ar    1  UNL11      -0.0617
     27 C          -3.4125   -2.9132    1.4716 C.ar    1  UNL11      -0.0615
     28 C          -3.2823   -1.9080    0.5227 C.ar    1  UNL11      -0.0575
     29 H           1.0289    0.8699   -2.1915 H       1  UNL11       0.1491
     30 H          -0.0337    0.0756   -4.1850 H       1  UNL11       0.0529
     31 H          -1.2138    1.3451   -3.5744 H       1  UNL11       0.0529
     32 H          -1.9641   -3.9994   -3.4561 H       1  UNL11       0.4829
     33 H          -5.7525   -2.0244   -1.8246 H       1  UNL11       0.0627
     34 H          -6.4130    0.2938   -1.2871 H       1  UNL11       0.0618
     35 H          -4.8217    2.1363   -1.6298 H       1  UNL11       0.0618
     36 H          -2.5405    1.6987   -2.5159 H       1  UNL11       0.0624
     37 H          -2.2073   -0.7602   -1.7480 H       1  UNL11       0.0492
     38 H          -1.5555    2.5157   -0.6990 H       1  UNL11       0.0621
     39 H          -3.2900    4.2061   -0.5111 H       1  UNL11       0.0618
     40 H          -5.6706    3.5148   -0.3182 H       1  UNL11       0.0618
     41 H          -6.2735    1.1063   -0.3273 H       1  UNL11       0.0618
     42 H          -4.5338   -0.5511   -0.5250 H       1  UNL11       0.0621
     43 H          -0.0331   -1.3157    0.7405 H       1  UNL11       0.0621
     44 H          -0.1774   -3.1185    2.4647 H       1  UNL11       0.0618
     45 H          -2.3802   -4.1323    2.9141 H       1  UNL11       0.0618
     46 H          -4.3659   -3.3743    1.6881 H       1  UNL11       0.0618
     47 H          -4.1638   -1.6050    0.0156 H       1  UNL11       0.0621
@<TRIPOS>BOND
     1     1     2    2
     2     2     3   am
     3     2    16    1
     4     3     4    1
     5     3    29    1
     6     4     5    1
     7     4    30    1
     8     4    31    1
     9     5     6    2
    10     6     7    1
    11     7     8   am
    12     7    32    1
    13     8     9    2
    14     8    10    1
    15    10    11   ar
    16    11    12   ar
    17    11    33    1
    18    12    13   ar
    19    12    34    1
    20    13    14   ar
    21    13    35    1
    22    14    15   ar
    23    14    36    1
    24    15     5    1
    25    15    10   ar
    26    16    17    1
    27    16    23    1
    28    16    37    1
    29    17    18   ar
    30    18    19   ar
    31    18    38    1
    32    19    20   ar
    33    19    39    1
    34    20    21   ar
    35    20    40    1
    36    21    22   ar
    37    21    41    1
    38    22    17   ar
    39    22    42    1
    40    23    24   ar
    41    24    25   ar
    42    24    43    1
    43    25    26   ar
    44    25    44    1
    45    26    27   ar
    46    26    45    1
    47    27    28   ar
    48    27    46    1
    49    28    23   ar
    50    28    47    1
@<TRIPOS>MOLECULE
*****
 47 50 0 0 0
SMALL
GASTEIGER

@<TRIPOS>ATOM
      1 O          -0.3134    1.3867   -1.4380 O.2     1  UNL11      -0.2748
      2 C          -0.5203    0.2518   -0.8951 C.2     1  UNL11       0.2251
      3 N           0.5719   -0.4914   -0.4387 N.am    1  UNL11      -0.3087
      4 C           0.3885   -1.7890    0.1694 C.3     1  UNL11       0.0602
      5 C          -0.8447   -2.3970   -0.4406 C.2     1  UNL11       0.1319
      6 N          -1.2913   -3.6023   -0.0718 N.2     1  UNL11      -0.0060
      7 N          -2.3558   -4.1872   -0.5673 N.am    1  UNL11      -0.0355
      8 C          -3.0640   -3.5496   -1.5136 C.2     1  UNL11       0.4383
      9 O          -4.0831   -4.1378   -1.9710 O.2     1  UNL11      -0.2116
     10 C          -2.6603   -2.3011   -1.9425 C.ar    1  UNL11       0.1005
     11 C          -3.3873   -1.6518   -2.9109 C.ar    1  UNL11      -0.0441
     12 C          -2.9594   -0.4118   -3.3153 C.ar    1  UNL11      -0.0608
     13 C          -1.8435    0.1757   -2.7805 C.ar    1  UNL11      -0.0611
     14 C          -1.0967   -0.4689   -1.7993 C.ar    1  UNL11      -0.0517
     15 C          -1.5318   -1.7034   -1.4039 C.ar    1  UNL11       0.0205
     16 C          -1.8939   -0.2291   -0.7688 C.3     1  UNL11       0.0855
     17 C          -2.9108    0.8495   -0.6325 C.ar    1  UNL11      -0.0312
     18 C          -2.5760    2.1902   -0.6268 C.ar    1  UNL11      -0.0575
     19 C          -3.5627    3.1434   -0.5146 C.ar    1  UNL11      -0.0615
     20 C          -4.8883    2.7778   -0.4067 C.ar    1  UNL11      -0.0617
     21 C          -5.2469    1.4489   -0.4094 C.ar    1  UNL11      -0.0615
     22 C          -4.2619    0.5159   -0.5212 C.ar    1  UNL11      -0.0575
     23 C          -2.0862   -1.3177    0.2394 C.ar    1  UNL11      -0.0312
     24 C          -0.9828   -1.7811    0.9621 C.ar    1  UNL11      -0.0575
     25 C          -1.0596   -2.7712    1.9096 C.ar    1  UNL11      -0.0615
     26 C          -2.2967   -3.3443    2.1657 C.ar    1  UNL11      -0.0617
     27 C          -3.4125   -2.9132    1.4716 C.ar    1  UNL11      -0.0615
     28 C          -3.2823   -1.9080    0.5227 C.ar    1  UNL11      -0.0575
     29 H           1.5281   -0.1218   -0.5384 H       1  UNL11       0.1491
     30 H           0.2203   -1.6880    1.2533 H       1  UNL11       0.0529
     31 H           1.2846   -2.4102   -0.0593 H       1  UNL11       0.0529
     32 H          -2.6680   -5.1518   -0.2363 H       1  UNL11       0.4829
     33 H          -4.2532   -2.1498   -3.3005 H       1  UNL11       0.0627
     34 H          -3.5420    0.0842   -4.0767 H       1  UNL11       0.0618
     35 H          -1.5392    1.1390   -3.1171 H       1  UNL11       0.0618
     36 H          -0.2086   -0.0172   -1.3642 H       1  UNL11       0.0624
     37 H          -2.2073   -0.7602   -1.7480 H       1  UNL11       0.0492
     38 H          -1.5555    2.5157   -0.6990 H       1  UNL11       0.0621
     39 H          -3.2900    4.2061   -0.5111 H       1  UNL11       0.0618
     40 H          -5.6706    3.5148   -0.3182 H       1  UNL11       0.0618
     41 H          -6.2735    1.1063   -0.3273 H       1  UNL11       0.0618
     42 H          -4.5338   -0.5511   -0.5250 H       1  UNL11       0.0621
     43 H          -0.0331   -1.3157    0.7405 H       1  UNL11       0.0621
     44 H          -0.1774   -3.1185    2.4647 H       1  UNL11       0.0618
     45 H          -2.3802   -4.1323    2.9141 H       1  UNL11       0.0618
     46 H          -4.3659   -3.3743    1.6881 H       1  UNL11       0.0618
     47 H          -4.1638   -1.6050    0.0156 H       1  UNL11       0.0621
@<TRIPOS>BOND
     1     1     2    2
     2     2     3   am
     3     2    16    1
     4     3     4    1
     5     3    29    1
     6     4     5    1
     7     4    30    1
     8     4    31    1
     9     5     6    2
    10     6     7    1
    11     7     8   am
    12     7    32    1
    13     8     9    2
    14     8    10    1
    15    10    11   ar
    16    11    12   ar
    17    11    33    1
    18    12    13   ar
    19    12    34    1
    20    13    14   ar
    21    13    35    1
    22    14    15   ar
    23    14    36    1
    24    15     5    1
    25    15    10   ar
    26    16    17    1
    27    16    23    1
    28    16    37    1
    29    17    18   ar
    30    18    19   ar
    31    18    38    1
    32    19    20   ar
    33    19    39    1
    34    20    21   ar
    35    20    40    1
    36    21    22   ar
    37    21    41    1
    38    22    17   ar
    39    22    42    1
    40    23    24   ar
    41    24    25   ar
    42    24    43    1
    43    25    26   ar
    44    25    44    1
    45    26    27   ar
    46    26    45    1
    47    27    28   ar
    48    27    46    1
    49    28    23   ar
    50    28    47    1
@<TRIPOS>MOLECULE
*****
 47 50 0 0 0
SMALL
GASTEIGER

@<TRIPOS>ATOM
      1 O           0.1740    0.4147    0.1618 O.2     1  UNL11      -0.2748
      2 C          -0.5203    0.2518   -0.8951 C.2     1  UNL11       0.2251
      3 N           0.0558    0.5368   -2.1362 N.am    1  UNL11      -0.3087
      4 C           1.4174    1.0097   -2.2348 C.3     1  UNL11       0.0602
      5 C           2.3031   -0.0557   -1.6492 C.2     1  UNL11       0.1319
      6 N           3.5540   -0.2470   -2.0815 N.2     1  UNL11      -0.0060
      7 N           4.3731   -1.1593   -1.6151 N.am    1  UNL11      -0.0355
      8 C           3.9477   -1.9708   -0.6332 C.2     1  UNL11       0.4383
      9 O           4.7588   -2.8386   -0.2052 O.2     1  UNL11      -0.2116
     10 C           2.6669   -1.8295   -0.1385 C.ar    1  UNL11       0.1005
     11 C           2.2351   -2.6616    0.8661 C.ar    1  UNL11      -0.0441
     12 C           0.9561   -2.4952    1.3360 C.ar    1  UNL11      -0.0608
     13 C           0.1216   -1.5337    0.8304 C.ar    1  UNL11      -0.0611
     14 C           0.5440   -0.6836   -0.1869 C.ar    1  UNL11      -0.0517
     15 C           1.8195   -0.8580   -0.6474 C.ar    1  UNL11       0.0205
     16 C          -1.8939   -0.2291   -0.7688 C.3     1  UNL11       0.0855
     17 C          -2.9108    0.8495   -0.6325 C.ar    1  UNL11      -0.0312
     18 C          -4.2594    0.5855   -0.4879 C.ar    1  UNL11      -0.0575
     19 C          -5.1512    1.6248   -0.3491 C.ar    1  UNL11      -0.0615
     20 C          -4.7158    2.9336   -0.3527 C.ar    1  UNL11      -0.0617
     21 C          -3.3775    3.2223   -0.4959 C.ar    1  UNL11      -0.0615
     22 C          -2.5058    2.1856   -0.6320 C.ar    1  UNL11      -0.0575
     23 C          -2.0862   -1.3177    0.2394 C.ar    1  UNL11      -0.0312
     24 C          -2.3948   -0.9780    1.5599 C.ar    1  UNL11      -0.0575
     25 C          -2.5935   -1.9039    2.5535 C.ar    1  UNL11      -0.0615
     26 C          -2.4829   -3.2490    2.2331 C.ar    1  UNL11      -0.0617
     27 C          -2.1790   -3.6257    0.9376 C.ar    1  UNL11      -0.0615
     28 C          -1.9873   -2.6504   -0.0319 C.ar    1  UNL11      -0.0575
     29 H          -0.4865    0.4046   -3.0018 H       1  UNL11       0.1491
     30 H           1.5512    1.9295   -1.6435 H       1  UNL11       0.0529
     31 H           1.6542    1.1663   -3.3121 H       1  UNL11       0.0529
     32 H           5.3629   -1.2688   -1.9972 H       1  UNL11       0.4829
     33 H           2.9225   -3.3992    1.2309 H       1  UNL11       0.0627
     34 H           0.6332   -3.1571    2.1252 H       1  UNL11       0.0618
     35 H          -0.8649   -1.4317    1.2179 H       1  UNL11       0.0618
     36 H          -0.1052    0.0847   -0.5997 H       1  UNL11       0.0624
     37 H          -2.2073   -0.7602   -1.7480 H       1  UNL11       0.0492
     38 H          -4.6397   -0.4185   -0.4894 H       1  UNL11       0.0621
     39 H          -6.2205    1.4082   -0.2343 H       1  UNL11       0.0618
     40 H          -5.4042    3.7568   -0.2448 H       1  UNL11       0.0618
     41 H          -2.9814    4.2327   -0.5057 H       1  UNL11       0.0618
     42 H          -1.4322    2.4012   -0.7473 H       1  UNL11       0.0621
     43 H          -2.4741    0.0772    1.7789 H       1  UNL11       0.0621
     44 H          -2.8352   -1.6117    3.5847 H       1  UNL11       0.0618
     45 H          -2.6367   -4.0011    3.0069 H       1  UNL11       0.0618
     46 H          -2.0980   -4.6796    0.7113 H       1  UNL11       0.0618
     47 H          -1.7591   -2.9828   -1.0134 H       1  UNL11       0.0621
@<TRIPOS>BOND
     1     1     2    2
     2     2     3   am
     3     2    16    1
     4     3     4    1
     5     3    29    1
     6     4     5    1
     7     4    30    1
     8     4    31    1
     9     5     6    2
    10     6     7    1
    11     7     8   am
    12     7    32    1
    13     8     9    2
    14     8    10    1
    15    10    11   ar
    16    11    12   ar
    17    11    33    1
    18    12    13   ar
    19    12    34    1
    20    13    14   ar
    21    13    35    1
    22    14    15   ar
    23    14    36    1
    24    15     5    1
    25    15    10   ar
    26    16    17    1
    27    16    23    1
    28    16    37    1
    29    17    18   ar
    30    18    19   ar
    31    18    38    1
    32    19    20   ar
    33    19    39    1
    34    20    21   ar
    35    20    40    1
    36    21    22   ar
    37    21    41    1
    38    22    17   ar
    39    22    42    1
    40    23    24   ar
    41    24    25   ar
    42    24    43    1
    43    25    26   ar
    44    25    44    1
    45    26    27   ar
    46    26    45    1
    47    27    28   ar
    48    27    46    1
    49    28    23   ar
    50    28    47    1
@<TRIPOS>MOLECULE
*****
 47 50 0 0 0
SMALL
GASTEIGER

@<TRIPOS>ATOM
      1 O           0.4194   -0.5992   -1.0305 O.2     1  UNL11      -0.2748
      2 C          -0.5203    0.2518   -0.8951 C.2     1  UNL11       0.2251
      3 N          -0.2050    1.6133   -0.8738 N.am    1  UNL11      -0.3087
      4 C           1.1617    2.0638   -1.0023 C.3     1  UNL11       0.0602
      5 C           1.1456    3.5657   -0.9219 C.2     1  UNL11       0.1319
      6 N           1.5942    4.3290   -1.9241 N.2     1  UNL11      -0.0060
      7 N           1.6100    5.6406   -1.9134 N.am    1  UNL11      -0.0355
      8 C           1.1476    6.2853   -0.8298 C.2     1  UNL11       0.4383
      9 O           1.1758    7.5474   -0.8493 O.2     1  UNL11      -0.2116
     10 C           0.6689    5.5601    0.2427 C.ar    1  UNL11       0.1005
     11 C           0.1967    6.2231    1.3496 C.ar    1  UNL11      -0.0441
     12 C          -0.2725    5.4728    2.3991 C.ar    1  UNL11      -0.0608
     13 C          -0.2772    4.1035    2.3610 C.ar    1  UNL11      -0.0611
     14 C           0.1976    3.4176    1.2475 C.ar    1  UNL11      -0.0517
     15 C           0.6624    4.1746    0.2081 C.ar    1  UNL11       0.0205
     16 C          -1.8939   -0.2291   -0.7688 C.3     1  UNL11       0.0855
     17 C          -2.9108    0.8495   -0.6325 C.ar    1  UNL11      -0.0312
     18 C          -4.2054    0.7133   -1.0960 C.ar    1  UNL11      -0.0575
     19 C          -5.1068    1.7396   -0.9261 C.ar    1  UNL11      -0.0615
     20 C          -4.7343    2.9091   -0.2967 C.ar    1  UNL11      -0.0617
     21 C          -3.4504    3.0690    0.1732 C.ar    1  UNL11      -0.0615
     22 C          -2.5686    2.0465   -0.0008 C.ar    1  UNL11      -0.0575
     23 C          -2.0862   -1.3177    0.2394 C.ar    1  UNL11      -0.0312
     24 C          -0.9828   -1.7811    0.9621 C.ar    1  UNL11      -0.0575
     25 C          -1.0596   -2.7712    1.9096 C.ar    1  UNL11      -0.0615
     26 C          -2.2967   -3.3443    2.1657 C.ar    1  UNL11      -0.0617
     27 C          -3.4125   -2.9132    1.4716 C.ar    1  UNL11      -0.0615
     28 C          -3.2823   -1.9080    0.5227 C.ar    1  UNL11      -0.0575
     29 H          -0.9509    2.3164   -0.7726 H       1  UNL11       0.1491
     30 H           1.5726    1.7777   -1.9835 H       1  UNL11       0.0529
     31 H           1.7505    1.6335   -0.1601 H       1  UNL11       0.0529
     32 H           1.9799    6.2014   -2.7419 H       1  UNL11       0.4829
     33 H           0.2197    7.2949    1.3350 H       1  UNL11       0.0627
     34 H          -0.6397    6.0095    3.2606 H       1  UNL11       0.0618
     35 H          -0.6484    3.5519    3.1929 H       1  UNL11       0.0618
     36 H           0.2011    2.3313    1.2007 H       1  UNL11       0.0624
     37 H          -2.2073   -0.7602   -1.7480 H       1  UNL11       0.0492
     38 H          -4.5322   -0.1769   -1.5995 H       1  UNL11       0.0621
     39 H          -6.1332    1.6247   -1.2962 H       1  UNL11       0.0618
     40 H          -5.4309    3.7206   -0.1574 H       1  UNL11       0.0618
     41 H          -3.1048    3.9672    0.6751 H       1  UNL11       0.0618
     42 H          -1.5381    2.1601    0.3701 H       1  UNL11       0.0621
     43 H          -0.0331   -1.3157    0.7405 H       1  UNL11       0.0621
     44 H          -0.1774   -3.1185    2.4647 H       1  UNL11       0.0618
     45 H          -2.3802   -4.1323    2.9141 H       1  UNL11       0.0618
     46 H          -4.3659   -3.3743    1.6881 H       1  UNL11       0.0618
     47 H          -4.1638   -1.6050    0.0156 H       1  UNL11       0.0621
@<TRIPOS>BOND
     1     1     2    2
     2     2     3   am
     3     2    16    1
     4     3     4    1
     5     3    29    1
     6     4     5    1
     7     4    30    1
     8     4    31    1
     9     5     6    2
    10     6     7    1
    11     7     8   am
    12     7    32    1
    13     8     9    2
    14     8    10    1
    15    10    11   ar
    16    11    12   ar
    17    11    33    1
    18    12    13   ar
    19    12    34    1
    20    13    14   ar
    21    13    35    1
    22    14    15   ar
    23    14    36    1
    24    15     5    1
    25    15    10   ar
    26    16    17    1
    27    16    23    1
    28    16    37    1
    29    17    18   ar
    30    18    19   ar
    31    18    38    1
    32    19    20   ar
    33    19    39    1
    34    20    21   ar
    35    20    40    1
    36    21    22   ar
    37    21    41    1
    38    22    17   ar
    39    22    42    1
    40    23    24   ar
    41    24    25   ar
    42    24    43    1
    43    25    26   ar
    44    25    44    1
    45    26    27   ar
    46    26    45    1
    47    27    28   ar
    48    27    46    1
    49    28    23   ar
    50    28    47    1
@<TRIPOS>MOLECULE
*****
 47 50 0 0 0
SMALL
GASTEIGER

@<TRIPOS>ATOM
      1 O           0.4285   -0.4720   -0.4463 O.2     1  UNL11      -0.2748
      2 C          -0.5203    0.2518   -0.8951 C.2     1  UNL11       0.2251
      3 N          -0.2144    1.4775   -1.4930 N.am    1  UNL11      -0.3087
      4 C           1.1528    1.9303   -1.6074 C.3     1  UNL11       0.0602
      5 C           1.1220    3.2774   -2.2757 C.2     1  UNL11       0.1319
      6 N           1.7449    3.5010   -3.4377 N.2     1  UNL11      -0.0060
      7 N           1.7582    4.6515   -4.0677 N.am    1  UNL11      -0.0355
      8 C           1.1067    5.6939   -3.5268 C.2     1  UNL11       0.4383
      9 O           1.1377    6.7878   -4.1565 O.2     1  UNL11      -0.2116
     10 C           0.4414    5.5347   -2.3279 C.ar    1  UNL11       0.1005
     11 C          -0.2240    6.6034   -1.7775 C.ar    1  UNL11      -0.0441
     12 C          -0.8757    6.4121   -0.5845 C.ar    1  UNL11      -0.0608
     13 C          -0.8731    5.1991    0.0519 C.ar    1  UNL11      -0.0611
     14 C          -0.2040    4.1075   -0.4925 C.ar    1  UNL11      -0.0517
     15 C           0.4416    4.3091   -1.6808 C.ar    1  UNL11       0.0205
     16 C          -1.8939   -0.2291   -0.7688 C.3     1  UNL11       0.0855
     17 C          -2.9108    0.8495   -0.6325 C.ar    1  UNL11      -0.0312
     18 C          -3.3051    1.3485    0.5943 C.ar    1  UNL11      -0.0575
     19 C          -4.2380    2.3587    0.6566 C.ar    1  UNL11      -0.0615
     20 C          -4.7886    2.8829   -0.4943 C.ar    1  UNL11      -0.0617
     21 C          -4.4125    2.4022   -1.7282 C.ar    1  UNL11      -0.0615
     22 C          -3.4889    1.4033   -1.7763 C.ar    1  UNL11      -0.0575
     23 C          -2.0862   -1.3177    0.2394 C.ar    1  UNL11      -0.0312
     24 C          -1.7773   -1.0686    1.5799 C.ar    1  UNL11      -0.0575
     25 C          -1.9241   -2.0005    2.5768 C.ar    1  UNL11      -0.0615
     26 C          -2.4043   -3.2574    2.2390 C.ar    1  UNL11      -0.0617
     27 C          -2.7213   -3.5429    0.9235 C.ar    1  UNL11      -0.0615
     28 C          -2.5551   -2.5654   -0.0484 C.ar    1  UNL11      -0.0575
     29 H          -0.9664    2.0731   -1.8681 H       1  UNL11       0.1491
     30 H           1.7351    1.2453   -2.2440 H       1  UNL11       0.0529
     31 H           1.5791    2.0125   -0.5814 H       1  UNL11       0.0529
     32 H           2.2722    4.7750   -4.9941 H       1  UNL11       0.4829
     33 H          -0.1989    7.5332   -2.3108 H       1  UNL11       0.0627
     34 H          -1.3933    7.2619   -0.1662 H       1  UNL11       0.0618
     35 H          -1.3890    5.0851    0.9765 H       1  UNL11       0.0618
     36 H          -0.1917    3.1378   -0.0007 H       1  UNL11       0.0624
     37 H          -2.2073   -0.7602   -1.7480 H       1  UNL11       0.0492
     38 H          -2.9077    0.9614    1.5134 H       1  UNL11       0.0621
     39 H          -4.5464    2.7505    1.6338 H       1  UNL11       0.0618
     40 H          -5.5203    3.6743   -0.4592 H       1  UNL11       0.0618
     41 H          -4.8136    2.7780   -2.6640 H       1  UNL11       0.0618
     42 H          -3.1782    1.0089   -2.7562 H       1  UNL11       0.0621
     43 H          -1.4055   -0.0809    1.8120 H       1  UNL11       0.0621
     44 H          -1.6743   -1.7805    3.6239 H       1  UNL11       0.0618
     45 H          -2.5285   -4.0126    3.0151 H       1  UNL11       0.0618
     46 H          -3.0938   -4.5290    0.6839 H       1  UNL11       0.0618
     47 H          -2.8133   -2.8252   -1.0443 H       1  UNL11       0.0621
@<TRIPOS>BOND
     1     1     2    2
     2     2     3   am
     3     2    16    1
     4     3     4    1
     5     3    29    1
     6     4     5    1
     7     4    30    1
     8     4    31    1
     9     5     6    2
    10     6     7    1
    11     7     8   am
    12     7    32    1
    13     8     9    2
    14     8    10    1
    15    10    11   ar
    16    11    12   ar
    17    11    33    1
    18    12    13   ar
    19    12    34    1
    20    13    14   ar
    21    13    35    1
    22    14    15   ar
    23    14    36    1
    24    15     5    1
    25    15    10   ar
    26    16    17    1
    27    16    23    1
    28    16    37    1
    29    17    18   ar
    30    18    19   ar
    31    18    38    1
    32    19    20   ar
    33    19    39    1
    34    20    21   ar
    35    20    40    1
    36    21    22   ar
    37    21    41    1
    38    22    17   ar
    39    22    42    1
    40    23    24   ar
    41    24    25   ar
    42    24    43    1
    43    25    26   ar
    44    25    44    1
    45    26    27   ar
    46    26    45    1
    47    27    28   ar
    48    27    46    1
    49    28    23   ar
    50    28    47    1
@<TRIPOS>MOLECULE
*****
 47 50 0 0 0
SMALL
GASTEIGER

@<TRIPOS>ATOM
      1 O          -0.3046    1.5083   -0.8797 O.2     1  UNL11      -0.2748
      2 C          -0.5203    0.2518   -0.8951 C.2     1  UNL11       0.2251
      3 N           0.5629   -0.6211   -1.0304 N.am    1  UNL11      -0.3087
      4 C           0.3667   -2.0519   -1.0682 C.3     1  UNL11       0.0602
      5 C          -0.5034   -2.3514   -2.2581 C.2     1  UNL11       0.1319
      6 N          -1.4058   -1.4734   -2.7088 N.2     1  UNL11      -0.0060
      7 N          -2.1950   -1.6761   -3.7368 N.am    1  UNL11      -0.0355
      8 C          -2.1089   -2.8407   -4.4000 C.2     1  UNL11       0.4383
      9 O          -2.8814   -3.0064   -5.3848 O.2     1  UNL11      -0.2116
     10 C          -1.1986   -3.7938   -3.9894 C.ar    1  UNL11       0.1005
     11 C          -1.1135   -4.9842   -4.6702 C.ar    1  UNL11      -0.0441
     12 C          -0.1981   -5.9108   -4.2366 C.ar    1  UNL11      -0.0608
     13 C           0.6140   -5.6726   -3.1594 C.ar    1  UNL11      -0.0611
     14 C           0.5397   -4.4723   -2.4597 C.ar    1  UNL11      -0.0517
     15 C          -0.3753   -3.5566   -2.9000 C.ar    1  UNL11       0.0205
     16 C          -1.8939   -0.2291   -0.7688 C.3     1  UNL11       0.0855
     17 C          -2.9108    0.8495   -0.6325 C.ar    1  UNL11      -0.0312
     18 C          -2.6277    2.0681   -0.0456 C.ar    1  UNL11      -0.0575
     19 C          -3.6051    3.0337    0.0369 C.ar    1  UNL11      -0.0615
     20 C          -4.8706    2.8013   -0.4602 C.ar    1  UNL11      -0.0617
     21 C          -5.1773    1.5954   -1.0488 C.ar    1  UNL11      -0.0615
     22 C          -4.2018    0.6488   -1.1245 C.ar    1  UNL11      -0.0575
     23 C          -2.0862   -1.3177    0.2394 C.ar    1  UNL11      -0.0312
     24 C          -2.3948   -0.9780    1.5599 C.ar    1  UNL11      -0.0575
     25 C          -2.5935   -1.9039    2.5535 C.ar    1  UNL11      -0.0615
     26 C          -2.4829   -3.2490    2.2331 C.ar    1  UNL11      -0.0617
     27 C          -2.1790   -3.6257    0.9376 C.ar    1  UNL11      -0.0615
     28 C          -1.9873   -2.6504   -0.0319 C.ar    1  UNL11      -0.0575
     29 H           1.5202   -0.2500   -1.1125 H       1  UNL11       0.1491
     30 H          -0.1604   -2.3942   -0.1636 H       1  UNL11       0.0529
     31 H           1.3633   -2.5369   -1.1809 H       1  UNL11       0.0529
     32 H          -2.8985   -0.9400   -4.0544 H       1  UNL11       0.4829
     33 H          -1.7686   -5.1267   -5.5069 H       1  UNL11       0.0627
     34 H          -0.1443   -6.8403   -4.7827 H       1  UNL11       0.0618
     35 H           1.3134   -6.4133   -2.8495 H       1  UNL11       0.0618
     36 H           1.1765   -4.2669   -1.6027 H       1  UNL11       0.0624
     37 H          -2.2073   -0.7602   -1.7480 H       1  UNL11       0.0492
     38 H          -1.6583    2.2848    0.3617 H       1  UNL11       0.0621
     39 H          -3.3735    3.9991    0.5037 H       1  UNL11       0.0618
     40 H          -5.6451    3.5494   -0.4018 H       1  UNL11       0.0618
     41 H          -6.1556    1.3601   -1.4556 H       1  UNL11       0.0618
     42 H          -4.4326   -0.3207   -1.5927 H       1  UNL11       0.0621
     43 H          -2.4741    0.0772    1.7789 H       1  UNL11       0.0621
     44 H          -2.8352   -1.6117    3.5847 H       1  UNL11       0.0618
     45 H          -2.6367   -4.0011    3.0069 H       1  UNL11       0.0618
     46 H          -2.0980   -4.6796    0.7113 H       1  UNL11       0.0618
     47 H          -1.7591   -2.9828   -1.0134 H       1  UNL11       0.0621
@<TRIPOS>BOND
     1     1     2    2
     2     2     3   am
     3     2    16    1
     4     3     4    1
     5     3    29    1
     6     4     5    1
     7     4    30    1
     8     4    31    1
     9     5     6    2
    10     6     7    1
    11     7     8   am
    12     7    32    1
    13     8     9    2
    14     8    10    1
    15    10    11   ar
    16    11    12   ar
    17    11    33    1
    18    12    13   ar
    19    12    34    1
    20    13    14   ar
    21    13    35    1
    22    14    15   ar
    23    14    36    1
    24    15     5    1
    25    15    10   ar
    26    16    17    1
    27    16    23    1
    28    16    37    1
    29    17    18   ar
    30    18    19   ar
    31    18    38    1
    32    19    20   ar
    33    19    39    1
    34    20    21   ar
    35    20    40    1
    36    21    22   ar
    37    21    41    1
    38    22    17   ar
    39    22    42    1
    40    23    24   ar
    41    24    25   ar
    42    24    43    1
    43    25    26   ar
    44    25    44    1
    45    26    27   ar
    46    26    45    1
    47    27    28   ar
    48    27    46    1
    49    28    23   ar
    50    28    47    1
@<TRIPOS>MOLECULE
*****
 47 50 0 0 0
SMALL
GASTEIGER

@<TRIPOS>ATOM
      1 O          -0.3046    1.5083   -0.8797 O.2     1  UNL11      -0.2748
      2 C          -0.5203    0.2518   -0.8951 C.2     1  UNL11       0.2251
      3 N           0.5629   -0.6211   -1.0304 N.am    1  UNL11      -0.3087
      4 C           0.3667   -2.0519   -1.0682 C.3     1  UNL11       0.0602
      5 C           1.7247   -2.6848   -1.2019 C.2     1  UNL11       0.1319
      6 N           1.8786   -4.0110   -1.2783 N.2     1  UNL11      -0.0060
      7 N           3.0335   -4.6226   -1.3920 N.am    1  UNL11      -0.0355
      8 C           4.1552   -3.8855   -1.4373 C.2     1  UNL11       0.4383
      9 O           5.2512   -4.5027   -1.5470 O.2     1  UNL11      -0.2116
     10 C           4.0708   -2.5097   -1.3636 C.ar    1  UNL11       0.1005
     11 C           5.2206   -1.7589   -1.4101 C.ar    1  UNL11      -0.0441
     12 C           5.1024   -0.3934   -1.3345 C.ar    1  UNL11      -0.0608
     13 C           3.8829    0.2192   -1.2160 C.ar    1  UNL11      -0.0611
     14 C           2.7096   -0.5271   -1.1674 C.ar    1  UNL11      -0.0517
     15 C           2.8389   -1.8861   -1.2436 C.ar    1  UNL11       0.0205
     16 C          -1.8939   -0.2291   -0.7688 C.3     1  UNL11       0.0855
     17 C          -2.9108    0.8495   -0.6325 C.ar    1  UNL11      -0.0312
     18 C          -4.2594    0.5855   -0.4879 C.ar    1  UNL11      -0.0575
     19 C          -5.1512    1.6248   -0.3491 C.ar    1  UNL11      -0.0615
     20 C          -4.7158    2.9336   -0.3527 C.ar    1  UNL11      -0.0617
     21 C          -3.3775    3.2223   -0.4959 C.ar    1  UNL11      -0.0615
     22 C          -2.5058    2.1856   -0.6320 C.ar    1  UNL11      -0.0575
     23 C          -2.0862   -1.3177    0.2394 C.ar    1  UNL11      -0.0312
     24 C          -3.3096   -1.4200    0.9081 C.ar    1  UNL11      -0.0575
     25 C          -3.5823   -2.3855    1.8448 C.ar    1  UNL11      -0.0615
     26 C          -2.5931   -3.3103    2.1459 C.ar    1  UNL11      -0.0617
     27 C          -1.3691   -3.2426    1.5057 C.ar    1  UNL11      -0.0615
     28 C          -1.1425   -2.2465    0.5653 C.ar    1  UNL11      -0.0575
     29 H           1.5202   -0.2500   -1.1125 H       1  UNL11       0.1491
     30 H          -0.2322   -2.3371   -1.9476 H       1  UNL11       0.0529
     31 H          -0.1169   -2.3622   -0.1138 H       1  UNL11       0.0529
     32 H           3.0992   -5.6856   -1.4490 H       1  UNL11       0.4829
     33 H           6.1523   -2.2812   -1.5033 H       1  UNL11       0.0627
     34 H           6.0154    0.1812   -1.3725 H       1  UNL11       0.0618
     35 H           3.8269    1.2811   -1.1597 H       1  UNL11       0.0618
     36 H           1.7336   -0.0572   -1.0735 H       1  UNL11       0.0624
     37 H          -2.2073   -0.7602   -1.7480 H       1  UNL11       0.0492
     38 H          -4.6397   -0.4185   -0.4894 H       1  UNL11       0.0621
     39 H          -6.2205    1.4082   -0.2343 H       1  UNL11       0.0618
     40 H          -5.4042    3.7568   -0.2448 H       1  UNL11       0.0618
     41 H          -2.9814    4.2327   -0.5057 H       1  UNL11       0.0618
     42 H          -1.4322    2.4012   -0.7473 H       1  UNL11       0.0621
     43 H          -4.0601   -0.6858    0.6525 H       1  UNL11       0.0621
     44 H          -4.5524   -2.4452    2.3572 H       1  UNL11       0.0618
     45 H          -2.7884   -4.0854    2.8868 H       1  UNL11       0.0618
     46 H          -0.6135   -3.9738    1.7565 H       1  UNL11       0.0618
     47 H          -0.1912   -2.2327    0.0956 H       1  UNL11       0.0621
@<TRIPOS>BOND
     1     1     2    2
     2     2     3   am
     3     2    16    1
     4     3     4    1
     5     3    29    1
     6     4     5    1
     7     4    30    1
     8     4    31    1
     9     5     6    2
    10     6     7    1
    11     7     8   am
    12     7    32    1
    13     8     9    2
    14     8    10    1
    15    10    11   ar
    16    11    12   ar
    17    11    33    1
    18    12    13   ar
    19    12    34    1
    20    13    14   ar
    21    13    35    1
    22    14    15   ar
    23    14    36    1
    24    15     5    1
    25    15    10   ar
    26    16    17    1
    27    16    23    1
    28    16    37    1
    29    17    18   ar
    30    18    19   ar
    31    18    38    1
    32    19    20   ar
    33    19    39    1
    34    20    21   ar
    35    20    40    1
    36    21    22   ar
    37    21    41    1
    38    22    17   ar
    39    22    42    1
    40    23    24   ar
    41    24    25   ar
    42    24    43    1
    43    25    26   ar
    44    25    44    1
    45    26    27   ar
    46    26    45    1
    47    27    28   ar
    48    27    46    1
    49    28    23   ar
    50    28    47    1
@<TRIPOS>MOLECULE
*****
 47 50 0 0 0
SMALL
GASTEIGER

@<TRIPOS>ATOM
      1 O           0.4285   -0.4720   -0.4463 O.2     1  UNL11      -0.2748
      2 C          -0.5203    0.2518   -0.8951 C.2     1  UNL11       0.2251
      3 N          -0.2144    1.4775   -1.4930 N.am    1  UNL11      -0.3087
      4 C           1.1528    1.9303   -1.6074 C.3     1  UNL11       0.0602
      5 C           1.1220    3.2774   -2.2757 C.2     1  UNL11       0.1319
      6 N           1.7449    3.5010   -3.4377 N.2     1  UNL11      -0.0060
      7 N           1.7582    4.6515   -4.0677 N.am    1  UNL11      -0.0355
      8 C           1.1067    5.6939   -3.5268 C.2     1  UNL11       0.4383
      9 O           1.1377    6.7878   -4.1565 O.2     1  UNL11      -0.2116
     10 C           0.4414    5.5347   -2.3279 C.ar    1  UNL11       0.1005
     11 C          -0.2240    6.6034   -1.7775 C.ar    1  UNL11      -0.0441
     12 C          -0.8757    6.4121   -0.5845 C.ar    1  UNL11      -0.0608
     13 C          -0.8731    5.1991    0.0519 C.ar    1  UNL11      -0.0611
     14 C          -0.2040    4.1075   -0.4925 C.ar    1  UNL11      -0.0517
     15 C           0.4416    4.3091   -1.6808 C.ar    1  UNL11       0.0205
     16 C          -1.8939   -0.2291   -0.7688 C.3     1  UNL11       0.0855
     17 C          -2.9108    0.8495   -0.6325 C.ar    1  UNL11      -0.0312
     18 C          -4.2054    0.7133   -1.0960 C.ar    1  UNL11      -0.0575
     19 C          -5.1068    1.7396   -0.9261 C.ar    1  UNL11      -0.0615
     20 C          -4.7343    2.9091   -0.2967 C.ar    1  UNL11      -0.0617
     21 C          -3.4504    3.0690    0.1732 C.ar    1  UNL11      -0.0615
     22 C          -2.5686    2.0465   -0.0008 C.ar    1  UNL11      -0.0575
     23 C          -2.0862   -1.3177    0.2394 C.ar    1  UNL11      -0.0312
     24 C          -3.3096   -1.4200    0.9081 C.ar    1  UNL11      -0.0575
     25 C          -3.5823   -2.3855    1.8448 C.ar    1  UNL11      -0.0615
     26 C          -2.5931   -3.3103    2.1459 C.ar    1  UNL11      -0.0617
     27 C          -1.3691   -3.2426    1.5057 C.ar    1  UNL11      -0.0615
     28 C          -1.1425   -2.2465    0.5653 C.ar    1  UNL11      -0.0575
     29 H          -0.9664    2.0731   -1.8681 H       1  UNL11       0.1491
     30 H           1.7351    1.2453   -2.2440 H       1  UNL11       0.0529
     31 H           1.5791    2.0125   -0.5814 H       1  UNL11       0.0529
     32 H           2.2722    4.7750   -4.9941 H       1  UNL11       0.4829
     33 H          -0.1989    7.5332   -2.3108 H       1  UNL11       0.0627
     34 H          -1.3933    7.2619   -0.1662 H       1  UNL11       0.0618
     35 H          -1.3890    5.0851    0.9765 H       1  UNL11       0.0618
     36 H          -0.1917    3.1378   -0.0007 H       1  UNL11       0.0624
     37 H          -2.2073   -0.7602   -1.7480 H       1  UNL11       0.0492
     38 H          -4.5322   -0.1769   -1.5995 H       1  UNL11       0.0621
     39 H          -6.1332    1.6247   -1.2962 H       1  UNL11       0.0618
     40 H          -5.4309    3.7206   -0.1574 H       1  UNL11       0.0618
     41 H          -3.1048    3.9672    0.6751 H       1  UNL11       0.0618
     42 H          -1.5381    2.1601    0.3701 H       1  UNL11       0.0621
     43 H          -4.0601   -0.6858    0.6525 H       1  UNL11       0.0621
     44 H          -4.5524   -2.4452    2.3572 H       1  UNL11       0.0618
     45 H          -2.7884   -4.0854    2.8868 H       1  UNL11       0.0618
     46 H          -0.6135   -3.9738    1.7565 H       1  UNL11       0.0618
     47 H          -0.1912   -2.2327    0.0956 H       1  UNL11       0.0621
@<TRIPOS>BOND
     1     1     2    2
     2     2     3   am
     3     2    16    1
     4     3     4    1
     5     3    29    1
     6     4     5    1
     7     4    30    1
     8     4    31    1
     9     5     6    2
    10     6     7    1
    11     7     8   am
    12     7    32    1
    13     8     9    2
    14     8    10    1
    15    10    11   ar
    16    11    12   ar
    17    11    33    1
    18    12    13   ar
    19    12    34    1
    20    13    14   ar
    21    13    35    1
    22    14    15   ar
    23    14    36    1
    24    15     5    1
    25    15    10   ar
    26    16    17    1
    27    16    23    1
    28    16    37    1
    29    17    18   ar
    30    18    19   ar
    31    18    38    1
    32    19    20   ar
    33    19    39    1
    34    20    21   ar
    35    20    40    1
    36    21    22   ar
    37    21    41    1
    38    22    17   ar
    39    22    42    1
    40    23    24   ar
    41    24    25   ar
    42    24    43    1
    43    25    26   ar
    44    25    44    1
    45    26    27   ar
    46    26    45    1
    47    27    28   ar
    48    27    46    1
    49    28    23   ar
    50    28    47    1
@<TRIPOS>MOLECULE
*****
 47 50 0 0 0
SMALL
GASTEIGER

@<TRIPOS>ATOM
      1 O          -0.3134    1.3867   -1.4380 O.2     1  UNL11      -0.2748
      2 C          -0.5203    0.2518   -0.8951 C.2     1  UNL11       0.2251
      3 N           0.5719   -0.4914   -0.4387 N.am    1  UNL11      -0.3087
      4 C           0.3885   -1.7890    0.1694 C.3     1  UNL11       0.0602
      5 C           0.2240   -1.5693    1.6483 C.2     1  UNL11       0.1319
      6 N           0.0484   -2.5885    2.4959 N.2     1  UNL11      -0.0060
      7 N          -0.1040   -2.4625    3.7927 N.am    1  UNL11      -0.0355
      8 C          -0.0858   -1.2320    4.3306 C.2     1  UNL11       0.4383
      9 O          -0.2351   -1.1429    5.5811 O.2     1  UNL11      -0.2116
     10 C           0.0915   -0.1332    3.5141 C.ar    1  UNL11       0.1005
     11 C           0.1094    1.1241    4.0679 C.ar    1  UNL11      -0.0441
     12 C           0.2877    2.1957    3.2287 C.ar    1  UNL11      -0.0608
     13 C           0.4445    2.0349    1.8774 C.ar    1  UNL11      -0.0611
     14 C           0.4286    0.7684    1.3015 C.ar    1  UNL11      -0.0517
     15 C           0.2504   -0.2917    2.1464 C.ar    1  UNL11       0.0205
     16 C          -1.8939   -0.2291   -0.7688 C.3     1  UNL11       0.0855
     17 C          -2.9108    0.8495   -0.6325 C.ar    1  UNL11      -0.0312
     18 C          -2.5760    2.1902   -0.6268 C.ar    1  UNL11      -0.0575
     19 C          -3.5627    3.1434   -0.5146 C.ar    1  UNL11      -0.0615
     20 C          -4.8883    2.7778   -0.4067 C.ar    1  UNL11      -0.0617
     21 C          -5.2469    1.4489   -0.4094 C.ar    1  UNL11      -0.0615
     22 C          -4.2619    0.5159   -0.5212 C.ar    1  UNL11      -0.0575
     23 C          -2.0862   -1.3177    0.2394 C.ar    1  UNL11      -0.0312
     24 C          -0.9828   -1.7811    0.9621 C.ar    1  UNL11      -0.0575
     25 C          -1.0596   -2.7712    1.9096 C.ar    1  UNL11      -0.0615
     26 C          -2.2967   -3.3443    2.1657 C.ar    1  UNL11      -0.0617
     27 C          -3.4125   -2.9132    1.4716 C.ar    1  UNL11      -0.0615
     28 C          -3.2823   -1.9080    0.5227 C.ar    1  UNL11      -0.0575
     29 H           1.5281   -0.1218   -0.5384 H       1  UNL11       0.1491
     30 H           1.2788   -2.4186    0.0135 H       1  UNL11       0.0529
     31 H          -0.5301   -2.2487   -0.2620 H       1  UNL11       0.0529
     32 H          -0.2411   -3.3111    4.4240 H       1  UNL11       0.4829
     33 H          -0.0171    1.2018    5.1298 H       1  UNL11       0.0627
     34 H           0.2993    3.1761    3.6803 H       1  UNL11       0.0618
     35 H           0.5807    2.8881    1.2549 H       1  UNL11       0.0618
     36 H           0.5515    0.6228    0.2311 H       1  UNL11       0.0624
     37 H          -2.2073   -0.7602   -1.7480 H       1  UNL11       0.0492
     38 H          -1.5555    2.5157   -0.6990 H       1  UNL11       0.0621
     39 H          -3.2900    4.2061   -0.5111 H       1  UNL11       0.0618
     40 H          -5.6706    3.5148   -0.3182 H       1  UNL11       0.0618
     41 H          -6.2735    1.1063   -0.3273 H       1  UNL11       0.0618
     42 H          -4.5338   -0.5511   -0.5250 H       1  UNL11       0.0621
     43 H          -0.0331   -1.3157    0.7405 H       1  UNL11       0.0621
     44 H          -0.1774   -3.1185    2.4647 H       1  UNL11       0.0618
     45 H          -2.3802   -4.1323    2.9141 H       1  UNL11       0.0618
     46 H          -4.3659   -3.3743    1.6881 H       1  UNL11       0.0618
     47 H          -4.1638   -1.6050    0.0156 H       1  UNL11       0.0621
@<TRIPOS>BOND
     1     1     2    2
     2     2     3   am
     3     2    16    1
     4     3     4    1
     5     3    29    1
     6     4     5    1
     7     4    30    1
     8     4    31    1
     9     5     6    2
    10     6     7    1
    11     7     8   am
    12     7    32    1
    13     8     9    2
    14     8    10    1
    15    10    11   ar
    16    11    12   ar
    17    11    33    1
    18    12    13   ar
    19    12    34    1
    20    13    14   ar
    21    13    35    1
    22    14    15   ar
    23    14    36    1
    24    15     5    1
    25    15    10   ar
    26    16    17    1
    27    16    23    1
    28    16    37    1
    29    17    18   ar
    30    18    19   ar
    31    18    38    1
    32    19    20   ar
    33    19    39    1
    34    20    21   ar
    35    20    40    1
    36    21    22   ar
    37    21    41    1
    38    22    17   ar
    39    22    42    1
    40    23    24   ar
    41    24    25   ar
    42    24    43    1
    43    25    26   ar
    44    25    44    1
    45    26    27   ar
    46    26    45    1
    47    27    28   ar
    48    27    46    1
    49    28    23   ar
    50    28    47    1
@<TRIPOS>MOLECULE
*****
 47 50 0 0 0
SMALL
GASTEIGER

@<TRIPOS>ATOM
      1 O           0.3136   -0.4385   -1.5686 O.2     1  UNL11      -0.2748
      2 C          -0.5203    0.2518   -0.8951 C.2     1  UNL11       0.2251
      3 N          -0.0931    1.4436   -0.3031 N.am    1  UNL11      -0.3087
      4 C          -0.9975    2.2518    0.4819 C.3     1  UNL11       0.0602
      5 C          -0.5590    3.6830    0.3343 C.2     1  UNL11       0.1319
      6 N           0.4944    4.0225   -0.4162 N.2     1  UNL11      -0.0060
      7 N           0.9281    5.2493   -0.5818 N.am    1  UNL11      -0.0355
      8 C           0.2845    6.2530    0.0363 C.2     1  UNL11       0.4383
      9 O           0.7254    7.4224   -0.1423 O.2     1  UNL11      -0.2116
     10 C          -0.8120    5.9752    0.8275 C.ar    1  UNL11       0.1005
     11 C          -1.4680    7.0045    1.4584 C.ar    1  UNL11      -0.0441
     12 C          -2.5547    6.6948    2.2379 C.ar    1  UNL11      -0.0608
     13 C          -2.9860    5.4040    2.3933 C.ar    1  UNL11      -0.0611
     14 C          -2.3325    4.3508    1.7612 C.ar    1  UNL11      -0.0517
     15 C          -1.2516    4.6705    0.9873 C.ar    1  UNL11       0.0205
     16 C          -1.8939   -0.2291   -0.7688 C.3     1  UNL11       0.0855
     17 C          -2.9108    0.8495   -0.6325 C.ar    1  UNL11      -0.0312
     18 C          -3.5423    1.4176   -1.7224 C.ar    1  UNL11      -0.0575
     19 C          -4.4872    2.4004   -1.5328 C.ar    1  UNL11      -0.0615
     20 C          -4.8146    2.8292   -0.2633 C.ar    1  UNL11      -0.0617
     21 C          -4.1991    2.2792    0.8382 C.ar    1  UNL11      -0.0615
     22 C          -3.2665    1.3079    0.6373 C.ar    1  UNL11      -0.0575
     23 C          -2.0862   -1.3177    0.2394 C.ar    1  UNL11      -0.0312
     24 C          -2.3948   -0.9780    1.5599 C.ar    1  UNL11      -0.0575
     25 C          -2.5935   -1.9039    2.5535 C.ar    1  UNL11      -0.0615
     26 C          -2.4829   -3.2490    2.2331 C.ar    1  UNL11      -0.0617
     27 C          -2.1790   -3.6257    0.9376 C.ar    1  UNL11      -0.0615
     28 C          -1.9873   -2.6504   -0.0319 C.ar    1  UNL11      -0.0575
     29 H           0.8815    1.7576   -0.4151 H       1  UNL11       0.1491
     30 H          -0.9318    1.9816    1.5477 H       1  UNL11       0.0529
     31 H          -2.0266    2.1147    0.0778 H       1  UNL11       0.0529
     32 H           1.7753    5.4644   -1.1930 H       1  UNL11       0.4829
     33 H          -1.0950    7.9984    1.3079 H       1  UNL11       0.0627
     34 H          -3.0582    7.5152    2.7262 H       1  UNL11       0.0618
     35 H          -3.8328    5.1986    3.0055 H       1  UNL11       0.0618
     36 H          -2.6614    3.3206    1.8737 H       1  UNL11       0.0624
     37 H          -2.2073   -0.7602   -1.7480 H       1  UNL11       0.0492
     38 H          -3.3092    1.1186   -2.7269 H       1  UNL11       0.0621
     39 H          -4.9850    2.8470   -2.4025 H       1  UNL11       0.0618
     40 H          -5.5530    3.5983   -0.1012 H       1  UNL11       0.0618
     41 H          -4.4185    2.5791    1.8580 H       1  UNL11       0.0618
     42 H          -2.7659    0.8586    1.5090 H       1  UNL11       0.0621
     43 H          -2.4741    0.0772    1.7789 H       1  UNL11       0.0621
     44 H          -2.8352   -1.6117    3.5847 H       1  UNL11       0.0618
     45 H          -2.6367   -4.0011    3.0069 H       1  UNL11       0.0618
     46 H          -2.0980   -4.6796    0.7113 H       1  UNL11       0.0618
     47 H          -1.7591   -2.9828   -1.0134 H       1  UNL11       0.0621
@<TRIPOS>BOND
     1     1     2    2
     2     2     3   am
     3     2    16    1
     4     3     4    1
     5     3    29    1
     6     4     5    1
     7     4    30    1
     8     4    31    1
     9     5     6    2
    10     6     7    1
    11     7     8   am
    12     7    32    1
    13     8     9    2
    14     8    10    1
    15    10    11   ar
    16    11    12   ar
    17    11    33    1
    18    12    13   ar
    19    12    34    1
    20    13    14   ar
    21    13    35    1
    22    14    15   ar
    23    14    36    1
    24    15     5    1
    25    15    10   ar
    26    16    17    1
    27    16    23    1
    28    16    37    1
    29    17    18   ar
    30    18    19   ar
    31    18    38    1
    32    19    20   ar
    33    19    39    1
    34    20    21   ar
    35    20    40    1
    36    21    22   ar
    37    21    41    1
    38    22    17   ar
    39    22    42    1
    40    23    24   ar
    41    24    25   ar
    42    24    43    1
    43    25    26   ar
    44    25    44    1
    45    26    27   ar
    46    26    45    1
    47    27    28   ar
    48    27    46    1
    49    28    23   ar
    50    28    47    1
@<TRIPOS>MOLECULE
*****
 47 50 0 0 0
SMALL
GASTEIGER

@<TRIPOS>ATOM
      1 O           0.4285   -0.4720   -0.4463 O.2     1  UNL11      -0.2748
      2 C          -0.5203    0.2518   -0.8951 C.2     1  UNL11       0.2251
      3 N          -0.2144    1.4775   -1.4930 N.am    1  UNL11      -0.3087
      4 C           1.1528    1.9303   -1.6074 C.3     1  UNL11       0.0602
      5 C           2.0263    0.8704   -0.9940 C.2     1  UNL11       0.1319
      6 N           1.5132   -0.2472   -0.4687 N.2     1  UNL11      -0.0060
      7 N           2.2198   -1.2051    0.0826 N.am    1  UNL11      -0.0355
      8 C           3.5557   -1.0768    0.1348 C.2     1  UNL11       0.4383
      9 O           4.2083   -2.0150    0.6713 O.2     1  UNL11      -0.2116
     10 C           4.1535    0.0519   -0.3887 C.ar    1  UNL11       0.1005
     11 C           5.5204    0.1797   -0.3335 C.ar    1  UNL11      -0.0441
     12 C           6.0838    1.3140   -0.8629 C.ar    1  UNL11      -0.0608
     13 C           5.3214    2.2991   -1.4330 C.ar    1  UNL11      -0.0611
     14 C           3.9362    2.1845   -1.4965 C.ar    1  UNL11      -0.0517
     15 C           3.3856    1.0508   -0.9663 C.ar    1  UNL11       0.0205
     16 C          -1.8939   -0.2291   -0.7688 C.3     1  UNL11       0.0855
     17 C          -2.9108    0.8495   -0.6325 C.ar    1  UNL11      -0.0312
     18 C          -3.9425    1.0169   -1.5365 C.ar    1  UNL11      -0.0575
     19 C          -4.8632    2.0227   -1.3486 C.ar    1  UNL11      -0.0615
     20 C          -4.7703    2.8712   -0.2651 C.ar    1  UNL11      -0.0617
     21 C          -3.7514    2.7251    0.6489 C.ar    1  UNL11      -0.0615
     22 C          -2.8475    1.7264    0.4520 C.ar    1  UNL11      -0.0575
     23 C          -2.0862   -1.3177    0.2394 C.ar    1  UNL11      -0.0312
     24 C          -3.3622   -1.8575    0.4257 C.ar    1  UNL11      -0.0575
     25 C          -3.6370   -2.8601    1.3220 C.ar    1  UNL11      -0.0615
     26 C          -2.5949   -3.3664    2.0849 C.ar    1  UNL11      -0.0617
     27 C          -1.3179   -2.8588    1.9299 C.ar    1  UNL11      -0.0615
     28 C          -1.0915   -1.8444    1.0092 C.ar    1  UNL11      -0.0575
     29 H          -0.9664    2.0731   -1.8681 H       1  UNL11       0.1491
     30 H           1.2996    2.8644   -1.0424 H       1  UNL11       0.0529
     31 H           1.3890    2.0536   -2.6891 H       1  UNL11       0.0529
     32 H           1.7583   -2.0773    0.4872 H       1  UNL11       0.4829
     33 H           6.0764   -0.6160    0.1218 H       1  UNL11       0.0627
     34 H           7.1586    1.3983   -0.8112 H       1  UNL11       0.0618
     35 H           5.7908    3.1665   -1.8344 H       1  UNL11       0.0618
     36 H           3.3161    2.9567   -1.9453 H       1  UNL11       0.0624
     37 H          -2.2073   -0.7602   -1.7480 H       1  UNL11       0.0492
     38 H          -4.0445    0.3838   -2.3975 H       1  UNL11       0.0621
     39 H          -5.6800    2.1498   -2.0699 H       1  UNL11       0.0618
     40 H          -5.4851    3.6630   -0.1065 H       1  UNL11       0.0618
     41 H          -3.6314    3.3642    1.5179 H       1  UNL11       0.0618
     42 H          -2.0271    1.5974    1.1749 H       1  UNL11       0.0621
     43 H          -4.1532   -1.4428   -0.1826 H       1  UNL11       0.0621
     44 H          -4.6491   -3.2680    1.4503 H       1  UNL11       0.0618
     45 H          -2.7910   -4.1628    2.8028 H       1  UNL11       0.0618
     46 H          -0.5217   -3.2689    2.5351 H       1  UNL11       0.0618
     47 H          -0.0967   -1.4861    0.9197 H       1  UNL11       0.0621
@<TRIPOS>BOND
     1     1     2    2
     2     2     3   am
     3     2    16    1
     4     3     4    1
     5     3    29    1
     6     4     5    1
     7     4    30    1
     8     4    31    1
     9     5     6    2
    10     6     7    1
    11     7     8   am
    12     7    32    1
    13     8     9    2
    14     8    10    1
    15    10    11   ar
    16    11    12   ar
    17    11    33    1
    18    12    13   ar
    19    12    34    1
    20    13    14   ar
    21    13    35    1
    22    14    15   ar
    23    14    36    1
    24    15     5    1
    25    15    10   ar
    26    16    17    1
    27    16    23    1
    28    16    37    1
    29    17    18   ar
    30    18    19   ar
    31    18    38    1
    32    19    20   ar
    33    19    39    1
    34    20    21   ar
    35    20    40    1
    36    21    22   ar
    37    21    41    1
    38    22    17   ar
    39    22    42    1
    40    23    24   ar
    41    24    25   ar
    42    24    43    1
    43    25    26   ar
    44    25    44    1
    45    26    27   ar
    46    26    45    1
    47    27    28   ar
    48    27    46    1
    49    28    23   ar
    50    28    47    1
@<TRIPOS>MOLECULE
*****
 47 50 0 0 0
SMALL
GASTEIGER

@<TRIPOS>ATOM
      1 O          -0.3046    1.5083   -0.8797 O.2     1  UNL11      -0.2748
      2 C          -0.5203    0.2518   -0.8951 C.2     1  UNL11       0.2251
      3 N           0.5629   -0.6211   -1.0304 N.am    1  UNL11      -0.3087
      4 C           1.9127   -0.1205   -1.1519 C.3     1  UNL11       0.0602
      5 C           1.9542    0.7581   -2.3721 C.2     1  UNL11       0.1319
      6 N           3.0796    1.3644   -2.7647 N.2     1  UNL11      -0.0060
      7 N           3.1797    2.1439   -3.8150 N.am    1  UNL11      -0.0355
      8 C           2.0876    2.3635   -4.5652 C.2     1  UNL11       0.4383
      9 O           2.2154    3.1180   -5.5694 O.2     1  UNL11      -0.2116
     10 C           0.8910    1.7692   -4.2183 C.ar    1  UNL11       0.1005
     11 C          -0.2242    1.9963   -4.9881 C.ar    1  UNL11      -0.0441
     12 C          -1.3986    1.3905   -4.6161 C.ar    1  UNL11      -0.0608
     13 C          -1.4745    0.5808   -3.5138 C.ar    1  UNL11      -0.0611
     14 C          -0.3542    0.3412   -2.7242 C.ar    1  UNL11      -0.0517
     15 C           0.8100    0.9494   -3.1037 C.ar    1  UNL11       0.0205
     16 C          -1.8939   -0.2291   -0.7688 C.3     1  UNL11       0.0855
     17 C          -2.9108    0.8495   -0.6325 C.ar    1  UNL11      -0.0312
     18 C          -4.2594    0.5855   -0.4879 C.ar    1  UNL11      -0.0575
     19 C          -5.1512    1.6248   -0.3491 C.ar    1  UNL11      -0.0615
     20 C          -4.7158    2.9336   -0.3527 C.ar    1  UNL11      -0.0617
     21 C          -3.3775    3.2223   -0.4959 C.ar    1  UNL11      -0.0615
     22 C          -2.5058    2.1856   -0.6320 C.ar    1  UNL11      -0.0575
     23 C          -2.0862   -1.3177    0.2394 C.ar    1  UNL11      -0.0312
     24 C          -2.3948   -0.9780    1.5599 C.ar    1  UNL11      -0.0575
     25 C          -2.5935   -1.9039    2.5535 C.ar    1  UNL11      -0.0615
     26 C          -2.4829   -3.2490    2.2331 C.ar    1  UNL11      -0.0617
     27 C          -2.1790   -3.6257    0.9376 C.ar    1  UNL11      -0.0615
     28 C          -1.9873   -2.6504   -0.0319 C.ar    1  UNL11      -0.0575
     29 H           0.4098   -1.6396   -1.0376 H       1  UNL11       0.1491
     30 H           2.6209   -0.9505   -1.3032 H       1  UNL11       0.0529
     31 H           2.1485    0.4697   -0.2370 H       1  UNL11       0.0529
     32 H           4.1040    2.6033   -4.0834 H       1  UNL11       0.4829
     33 H          -0.1177    2.6367   -5.8413 H       1  UNL11       0.0627
     34 H          -2.2648    1.5795   -5.2318 H       1  UNL11       0.0618
     35 H          -2.4017    0.1263   -3.2534 H       1  UNL11       0.0618
     36 H          -0.3969   -0.2985   -1.8460 H       1  UNL11       0.0624
     37 H          -2.2073   -0.7602   -1.7480 H       1  UNL11       0.0492
     38 H          -4.6397   -0.4185   -0.4894 H       1  UNL11       0.0621
     39 H          -6.2205    1.4082   -0.2343 H       1  UNL11       0.0618
     40 H          -5.4042    3.7568   -0.2448 H       1  UNL11       0.0618
     41 H          -2.9814    4.2327   -0.5057 H       1  UNL11       0.0618
     42 H          -1.4322    2.4012   -0.7473 H       1  UNL11       0.0621
     43 H          -2.4741    0.0772    1.7789 H       1  UNL11       0.0621
     44 H          -2.8352   -1.6117    3.5847 H       1  UNL11       0.0618
     45 H          -2.6367   -4.0011    3.0069 H       1  UNL11       0.0618
     46 H          -2.0980   -4.6796    0.7113 H       1  UNL11       0.0618
     47 H          -1.7591   -2.9828   -1.0134 H       1  UNL11       0.0621
@<TRIPOS>BOND
     1     1     2    2
     2     2     3   am
     3     2    16    1
     4     3     4    1
     5     3    29    1
     6     4     5    1
     7     4    30    1
     8     4    31    1
     9     5     6    2
    10     6     7    1
    11     7     8   am
    12     7    32    1
    13     8     9    2
    14     8    10    1
    15    10    11   ar
    16    11    12   ar
    17    11    33    1
    18    12    13   ar
    19    12    34    1
    20    13    14   ar
    21    13    35    1
    22    14    15   ar
    23    14    36    1
    24    15     5    1
    25    15    10   ar
    26    16    17    1
    27    16    23    1
    28    16    37    1
    29    17    18   ar
    30    18    19   ar
    31    18    38    1
    32    19    20   ar
    33    19    39    1
    34    20    21   ar
    35    20    40    1
    36    21    22   ar
    37    21    41    1
    38    22    17   ar
    39    22    42    1
    40    23    24   ar
    41    24    25   ar
    42    24    43    1
    43    25    26   ar
    44    25    44    1
    45    26    27   ar
    46    26    45    1
    47    27    28   ar
    48    27    46    1
    49    28    23   ar
    50    28    47    1
@<TRIPOS>MOLECULE
*****
 47 50 0 0 0
SMALL
GASTEIGER

@<TRIPOS>ATOM
      1 O           0.4285   -0.4720   -0.4463 O.2     1  UNL11      -0.2748
      2 C          -0.5203    0.2518   -0.8951 C.2     1  UNL11       0.2251
      3 N          -0.2144    1.4775   -1.4930 N.am    1  UNL11      -0.3087
      4 C           1.1528    1.9303   -1.6074 C.3     1  UNL11       0.0602
      5 C           1.7123    2.0161   -0.2138 C.2     1  UNL11       0.1319
      6 N           0.9786    1.7033    0.8595 N.2     1  UNL11      -0.0060
      7 N           1.4066    1.7607    2.0982 N.am    1  UNL11      -0.0355
      8 C           2.6680    2.1590    2.3300 C.2     1  UNL11       0.4383
      9 O           3.0508    2.2040    3.5322 O.2     1  UNL11      -0.2116
     10 C           3.4824    2.4975    1.2681 C.ar    1  UNL11       0.1005
     11 C           4.7724    2.9046    1.5091 C.ar    1  UNL11      -0.0441
     12 C           5.5563    3.2342    0.4315 C.ar    1  UNL11      -0.0608
     13 C           5.0833    3.1650   -0.8522 C.ar    1  UNL11      -0.0611
     14 C           3.7796    2.7547   -1.1126 C.ar    1  UNL11      -0.0517
     15 C           3.0075    2.4289   -0.0322 C.ar    1  UNL11       0.0205
     16 C          -1.8939   -0.2291   -0.7688 C.3     1  UNL11       0.0855
     17 C          -2.9108    0.8495   -0.6325 C.ar    1  UNL11      -0.0312
     18 C          -2.5760    2.1902   -0.6268 C.ar    1  UNL11      -0.0575
     19 C          -3.5627    3.1434   -0.5146 C.ar    1  UNL11      -0.0615
     20 C          -4.8883    2.7778   -0.4067 C.ar    1  UNL11      -0.0617
     21 C          -5.2469    1.4489   -0.4094 C.ar    1  UNL11      -0.0615
     22 C          -4.2619    0.5159   -0.5212 C.ar    1  UNL11      -0.0575
     23 C          -2.0862   -1.3177    0.2394 C.ar    1  UNL11      -0.0312
     24 C          -0.9828   -1.7811    0.9621 C.ar    1  UNL11      -0.0575
     25 C          -1.0596   -2.7712    1.9096 C.ar    1  UNL11      -0.0615
     26 C          -2.2967   -3.3443    2.1657 C.ar    1  UNL11      -0.0617
     27 C          -3.4125   -2.9132    1.4716 C.ar    1  UNL11      -0.0615
     28 C          -3.2823   -1.9080    0.5227 C.ar    1  UNL11      -0.0575
     29 H          -0.9664    2.0731   -1.8681 H       1  UNL11       0.1491
     30 H           1.1910    2.9363   -2.0544 H       1  UNL11       0.0529
     31 H           1.7176    1.1826   -2.2100 H       1  UNL11       0.0529
     32 H           0.7776    1.4993    2.9190 H       1  UNL11       0.4829
     33 H           5.0993    2.9435    2.5294 H       1  UNL11       0.0627
     34 H           6.5669    3.5519    0.6386 H       1  UNL11       0.0618
     35 H           5.7184    3.4280   -1.6655 H       1  UNL11       0.0618
     36 H           3.3880    2.6941   -2.1251 H       1  UNL11       0.0624
     37 H          -2.2073   -0.7602   -1.7480 H       1  UNL11       0.0492
     38 H          -1.5555    2.5157   -0.6990 H       1  UNL11       0.0621
     39 H          -3.2900    4.2061   -0.5111 H       1  UNL11       0.0618
     40 H          -5.6706    3.5148   -0.3182 H       1  UNL11       0.0618
     41 H          -6.2735    1.1063   -0.3273 H       1  UNL11       0.0618
     42 H          -4.5338   -0.5511   -0.5250 H       1  UNL11       0.0621
     43 H          -0.0331   -1.3157    0.7405 H       1  UNL11       0.0621
     44 H          -0.1774   -3.1185    2.4647 H       1  UNL11       0.0618
     45 H          -2.3802   -4.1323    2.9141 H       1  UNL11       0.0618
     46 H          -4.3659   -3.3743    1.6881 H       1  UNL11       0.0618
     47 H          -4.1638   -1.6050    0.0156 H       1  UNL11       0.0621
@<TRIPOS>BOND
     1     1     2    2
     2     2     3   am
     3     2    16    1
     4     3     4    1
     5     3    29    1
     6     4     5    1
     7     4    30    1
     8     4    31    1
     9     5     6    2
    10     6     7    1
    11     7     8   am
    12     7    32    1
    13     8     9    2
    14     8    10    1
    15    10    11   ar
    16    11    12   ar
    17    11    33    1
    18    12    13   ar
    19    12    34    1
    20    13    14   ar
    21    13    35    1
    22    14    15   ar
    23    14    36    1
    24    15     5    1
    25    15    10   ar
    26    16    17    1
    27    16    23    1
    28    16    37    1
    29    17    18   ar
    30    18    19   ar
    31    18    38    1
    32    19    20   ar
    33    19    39    1
    34    20    21   ar
    35    20    40    1
    36    21    22   ar
    37    21    41    1
    38    22    17   ar
    39    22    42    1
    40    23    24   ar
    41    24    25   ar
    42    24    43    1
    43    25    26   ar
    44    25    44    1
    45    26    27   ar
    46    26    45    1
    47    27    28   ar
    48    27    46    1
    49    28    23   ar
    50    28    47    1
