@<TRIPOS>MOLECULE
*****
 35 37 0 0 0
SMALL
GASTEIGER

@<TRIPOS>ATOM
      1 C          -1.9419   -3.5324    1.7133 C.ar    1  UNL11      -0.0617
      2 C          -2.8924   -2.6393    1.2754 C.ar    1  UNL11      -0.0611
      3 C          -2.6014   -1.4424    0.6324 C.ar    1  UNL11      -0.0524
      4 C          -1.2777   -1.1203    0.4163 C.ar    1  UNL11       0.0039
      5 C          -0.8623    0.1429   -0.1563 C.2     1  UNL11       0.1142
      6 N           0.1961    0.2462   -0.8599 N.2     1  UNL11      -0.1787
      7 N           1.1224   -0.6552   -1.2402 N.pl3   1  UNL11      -0.2204
      8 C           1.4024   -1.7795   -0.4146 C.ar    1  UNL11       0.1380
      9 C           1.2230   -1.6022    0.9488 C.ar    1  UNL11      -0.0203
     10 C           1.4500   -2.5908    1.8784 C.ar    1  UNL11      -0.0570
     11 C           1.8788   -3.8192    1.4139 C.ar    1  UNL11      -0.0435
     12 C           2.0437   -3.9523    0.0580 C.ar    1  UNL11       0.0297
     13 N           1.8142   -2.9680   -0.8286 N.ar    1  UNL11      -0.2389
     14 C          -1.5748    1.4101    0.0377 C.ar    1  UNL11       0.0912
     15 C          -2.9357    1.4677    0.2423 C.ar    1  UNL11      -0.0341
     16 C          -3.5684    2.6733    0.3870 C.ar    1  UNL11      -0.0583
     17 C          -2.8384    3.8493    0.3280 C.ar    1  UNL11      -0.0436
     18 C          -1.4703    3.7476    0.1204 C.ar    1  UNL11       0.0283
     19 N          -0.9111    2.5492   -0.0130 N.ar    1  UNL11      -0.2534
     20 C          -0.3096   -2.0115    0.8526 C.ar    1  UNL11      -0.0524
     21 C          -0.6206   -3.2148    1.4985 C.ar    1  UNL11      -0.0611
     22 H          -2.2072   -4.4655    2.2158 H       1  UNL11       0.0618
     23 H          -3.9569   -2.8743    1.4377 H       1  UNL11       0.0618
     24 H          -3.4404   -0.8347    0.3051 H       1  UNL11       0.0624
     25 H           1.6662   -0.5524   -2.1164 H       1  UNL11       0.1760
     26 H           0.8883   -0.6476    1.3257 H       1  UNL11       0.0652
     27 H           1.2910   -2.3908    2.9367 H       1  UNL11       0.0619
     28 H           2.0630   -4.6088    2.1244 H       1  UNL11       0.0633
     29 H           2.3844   -4.9214   -0.3344 H       1  UNL11       0.0830
     30 H          -3.5117    0.5742    0.2903 H       1  UNL11       0.0639
     31 H          -4.6422    2.7066    0.5479 H       1  UNL11       0.0619
     32 H          -3.2807    4.8237    0.4346 H       1  UNL11       0.0633
     33 H          -0.8542    4.6634    0.0674 H       1  UNL11       0.0830
     34 H           0.7510   -1.8530    0.7540 H       1  UNL11       0.0624
     35 H           0.1435   -3.8963    1.8323 H       1  UNL11       0.0618
@<TRIPOS>BOND
     1     1     2   ar
     2     1    22    1
     3     2     3   ar
     4     2    23    1
     5     3     4   ar
     6     3    24    1
     7     4     5    1
     8     4    20   ar
     9     5     6    2
    10     5    14    1
    11     6     7    1
    12     7     8    1
    13     7    25    1
    14     8     9   ar
    15     9    10   ar
    16     9    26    1
    17    10    11   ar
    18    10    27    1
    19    11    12   ar
    20    11    28    1
    21    12    13   ar
    22    12    29    1
    23    13     8   ar
    24    14    15   ar
    25    15    16   ar
    26    15    30    1
    27    16    17   ar
    28    16    31    1
    29    17    18   ar
    30    17    32    1
    31    18    19   ar
    32    18    33    1
    33    19    14   ar
    34    20    21   ar
    35    20    34    1
    36    21     1   ar
    37    21    35    1
@<TRIPOS>MOLECULE
*****
 35 37 0 0 0
SMALL
GASTEIGER

@<TRIPOS>ATOM
      1 C          -2.3080   -3.4946    1.5312 C.ar    1  UNL11      -0.0617
      2 C          -1.5152   -3.4859    0.4068 C.ar    1  UNL11      -0.0611
      3 C          -0.9900   -2.3356   -0.1691 C.ar    1  UNL11      -0.0524
      4 C          -1.2777   -1.1203    0.4163 C.ar    1  UNL11       0.0039
      5 C          -0.8623    0.1429   -0.1563 C.2     1  UNL11       0.1142
      6 N           0.1961    0.2462   -0.8599 N.2     1  UNL11      -0.1787
      7 N           1.1224   -0.6552   -1.2402 N.pl3   1  UNL11      -0.2204
      8 C           2.4695   -0.2473   -1.4472 C.ar    1  UNL11       0.1380
      9 C           2.9125    0.8237   -0.6859 C.ar    1  UNL11      -0.0203
     10 C           4.1864    1.3368   -0.7679 C.ar    1  UNL11      -0.0570
     11 C           5.0588    0.7433   -1.6598 C.ar    1  UNL11      -0.0435
     12 C           4.5805   -0.3133   -2.3934 C.ar    1  UNL11       0.0297
     13 N           3.3291   -0.7945   -2.2928 N.ar    1  UNL11      -0.2389
     14 C          -1.5748    1.4101    0.0377 C.ar    1  UNL11       0.0912
     15 C          -2.9357    1.4677    0.2423 C.ar    1  UNL11      -0.0341
     16 C          -3.5684    2.6733    0.3870 C.ar    1  UNL11      -0.0583
     17 C          -2.8384    3.8493    0.3280 C.ar    1  UNL11      -0.0436
     18 C          -1.4703    3.7476    0.1204 C.ar    1  UNL11       0.0283
     19 N          -0.9111    2.5492   -0.0130 N.ar    1  UNL11      -0.2534
     20 C          -2.0755   -1.1147    1.5499 C.ar    1  UNL11      -0.0524
     21 C          -2.5962   -2.2842    2.1184 C.ar    1  UNL11      -0.0611
     22 H          -2.7041   -4.4192    1.9573 H       1  UNL11       0.0618
     23 H          -1.2725   -4.4448   -0.0794 H       1  UNL11       0.0618
     24 H          -0.3510   -2.4599   -1.0391 H       1  UNL11       0.0624
     25 H           0.8874   -1.6498   -1.4123 H       1  UNL11       0.1760
     26 H           2.2416    1.2970    0.0149 H       1  UNL11       0.0652
     27 H           4.4756    2.1803   -0.1433 H       1  UNL11       0.0619
     28 H           6.0623    1.1288   -1.7409 H       1  UNL11       0.0633
     29 H           5.2573   -0.8011   -3.1097 H       1  UNL11       0.0830
     30 H          -3.5117    0.5742    0.2903 H       1  UNL11       0.0639
     31 H          -4.6422    2.7066    0.5479 H       1  UNL11       0.0619
     32 H          -3.2807    4.8237    0.4346 H       1  UNL11       0.0633
     33 H          -0.8542    4.6634    0.0674 H       1  UNL11       0.0830
     34 H          -2.3784   -0.2248    2.0756 H       1  UNL11       0.0624
     35 H          -3.2153   -2.2628    2.9991 H       1  UNL11       0.0618
@<TRIPOS>BOND
     1     1     2   ar
     2     1    22    1
     3     2     3   ar
     4     2    23    1
     5     3     4   ar
     6     3    24    1
     7     4     5    1
     8     4    20   ar
     9     5     6    2
    10     5    14    1
    11     6     7    1
    12     7     8    1
    13     7    25    1
    14     8     9   ar
    15     9    10   ar
    16     9    26    1
    17    10    11   ar
    18    10    27    1
    19    11    12   ar
    20    11    28    1
    21    12    13   ar
    22    12    29    1
    23    13     8   ar
    24    14    15   ar
    25    15    16   ar
    26    15    30    1
    27    16    17   ar
    28    16    31    1
    29    17    18   ar
    30    17    32    1
    31    18    19   ar
    32    18    33    1
    33    19    14   ar
    34    20    21   ar
    35    20    34    1
    36    21     1   ar
    37    21    35    1
@<TRIPOS>MOLECULE
*****
 35 37 0 0 0
SMALL
GASTEIGER

@<TRIPOS>ATOM
      1 C          -2.3080   -3.4946    1.5312 C.ar    1  UNL11      -0.0617
      2 C          -1.5152   -3.4859    0.4068 C.ar    1  UNL11      -0.0611
      3 C          -0.9900   -2.3356   -0.1691 C.ar    1  UNL11      -0.0524
      4 C          -1.2777   -1.1203    0.4163 C.ar    1  UNL11       0.0039
      5 C          -0.8623    0.1429   -0.1563 C.2     1  UNL11       0.1142
      6 N           0.1961    0.2462   -0.8599 N.2     1  UNL11      -0.1787
      7 N           1.1224   -0.6552   -1.2402 N.pl3   1  UNL11      -0.2204
      8 C           0.9996   -2.0145   -0.8387 C.ar    1  UNL11       0.1380
      9 C           0.3607   -2.2441    0.3704 C.ar    1  UNL11      -0.0203
     10 C           0.1623   -3.4997    0.8966 C.ar    1  UNL11      -0.0570
     11 C           0.6296   -4.5786    0.1709 C.ar    1  UNL11      -0.0435
     12 C           1.2557   -4.3074   -1.0198 C.ar    1  UNL11       0.0297
     13 N           1.4361   -3.0688   -1.5106 N.ar    1  UNL11      -0.2389
     14 C          -1.5748    1.4101    0.0377 C.ar    1  UNL11       0.0912
     15 C          -2.2997    1.6822    1.1768 C.ar    1  UNL11      -0.0341
     16 C          -2.9777    2.8648    1.3058 C.ar    1  UNL11      -0.0583
     17 C          -2.9378    3.8000    0.2844 C.ar    1  UNL11      -0.0436
     18 C          -2.1965    3.4872   -0.8459 C.ar    1  UNL11       0.0283
     19 N          -1.5588    2.3230   -0.9146 N.ar    1  UNL11      -0.2534
     20 C          -2.0755   -1.1147    1.5499 C.ar    1  UNL11      -0.0524
     21 C          -2.5962   -2.2842    2.1184 C.ar    1  UNL11      -0.0611
     22 H          -2.7041   -4.4192    1.9573 H       1  UNL11       0.0618
     23 H          -1.2725   -4.4448   -0.0794 H       1  UNL11       0.0618
     24 H          -0.3510   -2.4599   -1.0391 H       1  UNL11       0.0624
     25 H           1.9491   -0.3922   -1.8071 H       1  UNL11       0.1760
     26 H          -0.0093   -1.4106    0.9478 H       1  UNL11       0.0652
     27 H          -0.3469   -3.6162    1.8518 H       1  UNL11       0.0619
     28 H           0.4852   -5.5720    0.5641 H       1  UNL11       0.0633
     29 H           1.6357   -5.1508   -1.6143 H       1  UNL11       0.0830
     30 H          -2.3411    0.9751    1.9710 H       1  UNL11       0.0639
     31 H          -3.5462    3.0686    2.2087 H       1  UNL11       0.0619
     32 H          -3.4499    4.7446    0.3298 H       1  UNL11       0.0633
     33 H          -2.1407    4.2078   -1.6818 H       1  UNL11       0.0830
     34 H          -2.3784   -0.2248    2.0756 H       1  UNL11       0.0624
     35 H          -3.2153   -2.2628    2.9991 H       1  UNL11       0.0618
@<TRIPOS>BOND
     1     1     2   ar
     2     1    22    1
     3     2     3   ar
     4     2    23    1
     5     3     4   ar
     6     3    24    1
     7     4     5    1
     8     4    20   ar
     9     5     6    2
    10     5    14    1
    11     6     7    1
    12     7     8    1
    13     7    25    1
    14     8     9   ar
    15     9    10   ar
    16     9    26    1
    17    10    11   ar
    18    10    27    1
    19    11    12   ar
    20    11    28    1
    21    12    13   ar
    22    12    29    1
    23    13     8   ar
    24    14    15   ar
    25    15    16   ar
    26    15    30    1
    27    16    17   ar
    28    16    31    1
    29    17    18   ar
    30    17    32    1
    31    18    19   ar
    32    18    33    1
    33    19    14   ar
    34    20    21   ar
    35    20    34    1
    36    21     1   ar
    37    21    35    1
@<TRIPOS>MOLECULE
*****
 35 37 0 0 0
SMALL
GASTEIGER

@<TRIPOS>ATOM
      1 C          -2.2271   -3.6070    1.3419 C.ar    1  UNL11      -0.0617
      2 C          -0.8863   -3.3201    1.2288 C.ar    1  UNL11      -0.0611
      3 C          -0.3831   -2.1061    0.7774 C.ar    1  UNL11      -0.0524
      4 C          -1.2777   -1.1203    0.4163 C.ar    1  UNL11       0.0039
      5 C          -0.8623    0.1429   -0.1563 C.2     1  UNL11       0.1142
      6 N           0.1961    0.2462   -0.8599 N.2     1  UNL11      -0.1787
      7 N           1.1224   -0.6552   -1.2402 N.pl3   1  UNL11      -0.2204
      8 C           1.4024   -1.7795   -0.4146 C.ar    1  UNL11       0.1380
      9 C           1.2230   -1.6022    0.9488 C.ar    1  UNL11      -0.0203
     10 C           1.4500   -2.5908    1.8784 C.ar    1  UNL11      -0.0570
     11 C           1.8788   -3.8192    1.4139 C.ar    1  UNL11      -0.0435
     12 C           2.0437   -3.9523    0.0580 C.ar    1  UNL11       0.0297
     13 N           1.8142   -2.9680   -0.8286 N.ar    1  UNL11      -0.2389
     14 C          -1.5748    1.4101    0.0377 C.ar    1  UNL11       0.0912
     15 C          -2.7208    1.5038    0.7960 C.ar    1  UNL11      -0.0341
     16 C          -3.3747    2.6997    0.9262 C.ar    1  UNL11      -0.0583
     17 C          -2.8840    3.8292    0.2917 C.ar    1  UNL11      -0.0436
     18 C          -1.7274    3.6922   -0.4625 C.ar    1  UNL11       0.0283
     19 N          -1.1358    2.5054   -0.5524 N.ar    1  UNL11      -0.2534
     20 C          -2.6318   -1.3961    0.5254 C.ar    1  UNL11      -0.0524
     21 C          -3.1222   -2.6256    0.9835 C.ar    1  UNL11      -0.0611
     22 H          -2.5875   -4.5736    1.7012 H       1  UNL11       0.0618
     23 H          -0.1522   -4.0925    1.5104 H       1  UNL11       0.0618
     24 H           0.6968   -1.9880    0.7621 H       1  UNL11       0.0624
     25 H           1.6662   -0.5524   -2.1164 H       1  UNL11       0.1760
     26 H           0.8883   -0.6476    1.3257 H       1  UNL11       0.0652
     27 H           1.2910   -2.3908    2.9367 H       1  UNL11       0.0619
     28 H           2.0630   -4.6088    2.1244 H       1  UNL11       0.0633
     29 H           2.3844   -4.9214   -0.3344 H       1  UNL11       0.0830
     30 H          -3.1116    0.6461    1.2903 H       1  UNL11       0.0639
     31 H          -4.2777    2.7616    1.5269 H       1  UNL11       0.0619
     32 H          -3.3547    4.7938    0.3578 H       1  UNL11       0.0633
     33 H          -1.3054    4.5705   -0.9836 H       1  UNL11       0.0830
     34 H          -3.4158   -0.7095    0.2539 H       1  UNL11       0.0624
     35 H          -4.1776   -2.8246    1.0617 H       1  UNL11       0.0618
@<TRIPOS>BOND
     1     1     2   ar
     2     1    22    1
     3     2     3   ar
     4     2    23    1
     5     3     4   ar
     6     3    24    1
     7     4     5    1
     8     4    20   ar
     9     5     6    2
    10     5    14    1
    11     6     7    1
    12     7     8    1
    13     7    25    1
    14     8     9   ar
    15     9    10   ar
    16     9    26    1
    17    10    11   ar
    18    10    27    1
    19    11    12   ar
    20    11    28    1
    21    12    13   ar
    22    12    29    1
    23    13     8   ar
    24    14    15   ar
    25    15    16   ar
    26    15    30    1
    27    16    17   ar
    28    16    31    1
    29    17    18   ar
    30    17    32    1
    31    18    19   ar
    32    18    33    1
    33    19    14   ar
    34    20    21   ar
    35    20    34    1
    36    21     1   ar
    37    21    35    1
@<TRIPOS>MOLECULE
*****
 35 37 0 0 0
SMALL
GASTEIGER

@<TRIPOS>ATOM
      1 C          -1.8592   -3.6473    1.5200 C.ar    1  UNL11      -0.0617
      2 C          -2.2499   -2.4700    2.1151 C.ar    1  UNL11      -0.0611
      3 C          -1.9814   -1.2080    1.5994 C.ar    1  UNL11      -0.0524
      4 C          -1.2777   -1.1203    0.4163 C.ar    1  UNL11       0.0039
      5 C          -0.8623    0.1429   -0.1563 C.2     1  UNL11       0.1142
      6 N           0.1961    0.2462   -0.8599 N.2     1  UNL11      -0.1787
      7 N           1.1224   -0.6552   -1.2402 N.pl3   1  UNL11      -0.2204
      8 C           0.7571   -2.0183   -1.4205 C.ar    1  UNL11       0.1380
      9 C          -0.5503   -2.2584   -1.8150 C.ar    1  UNL11      -0.0203
     10 C          -1.0576   -3.5188   -2.0319 C.ar    1  UNL11      -0.0570
     11 C          -0.2078   -4.5915   -1.8428 C.ar    1  UNL11      -0.0435
     12 C           1.0774   -4.3101   -1.4525 C.ar    1  UNL11       0.0297
     13 N           1.5469   -3.0670   -1.2475 N.ar    1  UNL11      -0.2389
     14 C          -1.5748    1.4101    0.0377 C.ar    1  UNL11       0.0912
     15 C          -2.2997    1.6822    1.1768 C.ar    1  UNL11      -0.0341
     16 C          -2.9777    2.8648    1.3058 C.ar    1  UNL11      -0.0583
     17 C          -2.9378    3.8000    0.2844 C.ar    1  UNL11      -0.0436
     18 C          -2.1965    3.4872   -0.8459 C.ar    1  UNL11       0.0283
     19 N          -1.5588    2.3230   -0.9146 N.ar    1  UNL11      -0.2534
     20 C          -0.8780   -2.2990   -0.1940 C.ar    1  UNL11      -0.0524
     21 C          -1.1580   -3.5636    0.3392 C.ar    1  UNL11      -0.0611
     22 H          -2.0881   -4.6232    1.9542 H       1  UNL11       0.0618
     23 H          -2.8125   -2.5144    3.0618 H       1  UNL11       0.0618
     24 H          -2.3700   -0.3526    2.1451 H       1  UNL11       0.0624
     25 H           2.1149   -0.3976   -1.3903 H       1  UNL11       0.1760
     26 H          -1.2252   -1.4297   -1.9665 H       1  UNL11       0.0652
     27 H          -2.0940   -3.6435   -2.3411 H       1  UNL11       0.0619
     28 H          -0.5837   -5.5885   -2.0070 H       1  UNL11       0.0633
     29 H           1.7715   -5.1485   -1.2959 H       1  UNL11       0.0830
     30 H          -2.3411    0.9751    1.9710 H       1  UNL11       0.0639
     31 H          -3.5462    3.0686    2.2087 H       1  UNL11       0.0619
     32 H          -3.4499    4.7446    0.3298 H       1  UNL11       0.0633
     33 H          -2.1407    4.2078   -1.6818 H       1  UNL11       0.0830
     34 H          -0.3087   -2.3481   -1.1070 H       1  UNL11       0.0624
     35 H          -0.8396   -4.4701   -0.1469 H       1  UNL11       0.0618
@<TRIPOS>BOND
     1     1     2   ar
     2     1    22    1
     3     2     3   ar
     4     2    23    1
     5     3     4   ar
     6     3    24    1
     7     4     5    1
     8     4    20   ar
     9     5     6    2
    10     5    14    1
    11     6     7    1
    12     7     8    1
    13     7    25    1
    14     8     9   ar
    15     9    10   ar
    16     9    26    1
    17    10    11   ar
    18    10    27    1
    19    11    12   ar
    20    11    28    1
    21    12    13   ar
    22    12    29    1
    23    13     8   ar
    24    14    15   ar
    25    15    16   ar
    26    15    30    1
    27    16    17   ar
    28    16    31    1
    29    17    18   ar
    30    17    32    1
    31    18    19   ar
    32    18    33    1
    33    19    14   ar
    34    20    21   ar
    35    20    34    1
    36    21     1   ar
    37    21    35    1
@<TRIPOS>MOLECULE
*****
 35 37 0 0 0
SMALL
GASTEIGER

@<TRIPOS>ATOM
      1 C          -1.9419   -3.5324    1.7133 C.ar    1  UNL11      -0.0617
      2 C          -2.8924   -2.6393    1.2754 C.ar    1  UNL11      -0.0611
      3 C          -2.6014   -1.4424    0.6324 C.ar    1  UNL11      -0.0524
      4 C          -1.2777   -1.1203    0.4163 C.ar    1  UNL11       0.0039
      5 C          -0.8623    0.1429   -0.1563 C.2     1  UNL11       0.1142
      6 N           0.1961    0.2462   -0.8599 N.2     1  UNL11      -0.1787
      7 N           1.1224   -0.6552   -1.2402 N.pl3   1  UNL11      -0.2204
      8 C           2.2318   -0.2453   -2.0309 C.ar    1  UNL11       0.1380
      9 C           2.7516   -1.1922   -2.9003 C.ar    1  UNL11      -0.0203
     10 C           3.8213   -0.9521   -3.7316 C.ar    1  UNL11      -0.0570
     11 C           4.3971    0.3030   -3.6867 C.ar    1  UNL11      -0.0435
     12 C           3.8523    1.2102   -2.8129 C.ar    1  UNL11       0.0297
     13 N           2.8054    0.9480   -2.0111 N.ar    1  UNL11      -0.2389
     14 C          -1.5748    1.4101    0.0377 C.ar    1  UNL11       0.0912
     15 C          -2.9357    1.4677    0.2423 C.ar    1  UNL11      -0.0341
     16 C          -3.5684    2.6733    0.3870 C.ar    1  UNL11      -0.0583
     17 C          -2.8384    3.8493    0.3280 C.ar    1  UNL11      -0.0436
     18 C          -1.4703    3.7476    0.1204 C.ar    1  UNL11       0.0283
     19 N          -0.9111    2.5492   -0.0130 N.ar    1  UNL11      -0.2534
     20 C          -0.3096   -2.0115    0.8526 C.ar    1  UNL11      -0.0524
     21 C          -0.6206   -3.2148    1.4985 C.ar    1  UNL11      -0.0611
     22 H          -2.2072   -4.4655    2.2158 H       1  UNL11       0.0618
     23 H          -3.9569   -2.8743    1.4377 H       1  UNL11       0.0618
     24 H          -3.4404   -0.8347    0.3051 H       1  UNL11       0.0624
     25 H           1.0498   -1.6593   -0.9942 H       1  UNL11       0.1760
     26 H           2.3117   -2.1769   -2.9457 H       1  UNL11       0.0652
     27 H           4.1846   -1.7368   -4.3930 H       1  UNL11       0.0619
     28 H           5.2366    0.5137   -4.3295 H       1  UNL11       0.0633
     29 H           4.2945    2.2156   -2.7602 H       1  UNL11       0.0830
     30 H          -3.5117    0.5742    0.2903 H       1  UNL11       0.0639
     31 H          -4.6422    2.7066    0.5479 H       1  UNL11       0.0619
     32 H          -3.2807    4.8237    0.4346 H       1  UNL11       0.0633
     33 H          -0.8542    4.6634    0.0674 H       1  UNL11       0.0830
     34 H           0.7510   -1.8530    0.7540 H       1  UNL11       0.0624
     35 H           0.1435   -3.8963    1.8323 H       1  UNL11       0.0618
@<TRIPOS>BOND
     1     1     2   ar
     2     1    22    1
     3     2     3   ar
     4     2    23    1
     5     3     4   ar
     6     3    24    1
     7     4     5    1
     8     4    20   ar
     9     5     6    2
    10     5    14    1
    11     6     7    1
    12     7     8    1
    13     7    25    1
    14     8     9   ar
    15     9    10   ar
    16     9    26    1
    17    10    11   ar
    18    10    27    1
    19    11    12   ar
    20    11    28    1
    21    12    13   ar
    22    12    29    1
    23    13     8   ar
    24    14    15   ar
    25    15    16   ar
    26    15    30    1
    27    16    17   ar
    28    16    31    1
    29    17    18   ar
    30    17    32    1
    31    18    19   ar
    32    18    33    1
    33    19    14   ar
    34    20    21   ar
    35    20    34    1
    36    21     1   ar
    37    21    35    1
@<TRIPOS>MOLECULE
*****
 35 37 0 0 0
SMALL
GASTEIGER

@<TRIPOS>ATOM
      1 C          -1.8592   -3.6473    1.5200 C.ar    1  UNL11      -0.0617
      2 C          -2.2499   -2.4700    2.1151 C.ar    1  UNL11      -0.0611
      3 C          -1.9814   -1.2080    1.5994 C.ar    1  UNL11      -0.0524
      4 C          -1.2777   -1.1203    0.4163 C.ar    1  UNL11       0.0039
      5 C          -0.8623    0.1429   -0.1563 C.2     1  UNL11       0.1142
      6 N           0.1961    0.2462   -0.8599 N.2     1  UNL11      -0.1787
      7 N           1.1224   -0.6552   -1.2402 N.pl3   1  UNL11      -0.2204
      8 C           0.9996   -2.0145   -0.8387 C.ar    1  UNL11       0.1380
      9 C           0.3607   -2.2441    0.3704 C.ar    1  UNL11      -0.0203
     10 C           0.1623   -3.4997    0.8966 C.ar    1  UNL11      -0.0570
     11 C           0.6296   -4.5786    0.1709 C.ar    1  UNL11      -0.0435
     12 C           1.2557   -4.3074   -1.0198 C.ar    1  UNL11       0.0297
     13 N           1.4361   -3.0688   -1.5106 N.ar    1  UNL11      -0.2389
     14 C          -1.5748    1.4101    0.0377 C.ar    1  UNL11       0.0912
     15 C          -2.2997    1.6822    1.1768 C.ar    1  UNL11      -0.0341
     16 C          -2.9777    2.8648    1.3058 C.ar    1  UNL11      -0.0583
     17 C          -2.9378    3.8000    0.2844 C.ar    1  UNL11      -0.0436
     18 C          -2.1965    3.4872   -0.8459 C.ar    1  UNL11       0.0283
     19 N          -1.5588    2.3230   -0.9146 N.ar    1  UNL11      -0.2534
     20 C          -0.8780   -2.2990   -0.1940 C.ar    1  UNL11      -0.0524
     21 C          -1.1580   -3.5636    0.3392 C.ar    1  UNL11      -0.0611
     22 H          -2.0881   -4.6232    1.9542 H       1  UNL11       0.0618
     23 H          -2.8125   -2.5144    3.0618 H       1  UNL11       0.0618
     24 H          -2.3700   -0.3526    2.1451 H       1  UNL11       0.0624
     25 H           1.9491   -0.3922   -1.8071 H       1  UNL11       0.1760
     26 H          -0.0093   -1.4106    0.9478 H       1  UNL11       0.0652
     27 H          -0.3469   -3.6162    1.8518 H       1  UNL11       0.0619
     28 H           0.4852   -5.5720    0.5641 H       1  UNL11       0.0633
     29 H           1.6357   -5.1508   -1.6143 H       1  UNL11       0.0830
     30 H          -2.3411    0.9751    1.9710 H       1  UNL11       0.0639
     31 H          -3.5462    3.0686    2.2087 H       1  UNL11       0.0619
     32 H          -3.4499    4.7446    0.3298 H       1  UNL11       0.0633
     33 H          -2.1407    4.2078   -1.6818 H       1  UNL11       0.0830
     34 H          -0.3087   -2.3481   -1.1070 H       1  UNL11       0.0624
     35 H          -0.8396   -4.4701   -0.1469 H       1  UNL11       0.0618
@<TRIPOS>BOND
     1     1     2   ar
     2     1    22    1
     3     2     3   ar
     4     2    23    1
     5     3     4   ar
     6     3    24    1
     7     4     5    1
     8     4    20   ar
     9     5     6    2
    10     5    14    1
    11     6     7    1
    12     7     8    1
    13     7    25    1
    14     8     9   ar
    15     9    10   ar
    16     9    26    1
    17    10    11   ar
    18    10    27    1
    19    11    12   ar
    20    11    28    1
    21    12    13   ar
    22    12    29    1
    23    13     8   ar
    24    14    15   ar
    25    15    16   ar
    26    15    30    1
    27    16    17   ar
    28    16    31    1
    29    17    18   ar
    30    17    32    1
    31    18    19   ar
    32    18    33    1
    33    19    14   ar
    34    20    21   ar
    35    20    34    1
    36    21     1   ar
    37    21    35    1
@<TRIPOS>MOLECULE
*****
 35 37 0 0 0
SMALL
GASTEIGER

@<TRIPOS>ATOM
      1 C          -1.8592   -3.6473    1.5200 C.ar    1  UNL11      -0.0617
      2 C          -2.2499   -2.4700    2.1151 C.ar    1  UNL11      -0.0611
      3 C          -1.9814   -1.2080    1.5994 C.ar    1  UNL11      -0.0524
      4 C          -1.2777   -1.1203    0.4163 C.ar    1  UNL11       0.0039
      5 C          -0.8623    0.1429   -0.1563 C.2     1  UNL11       0.1142
      6 N           0.1961    0.2462   -0.8599 N.2     1  UNL11      -0.1787
      7 N           1.1224   -0.6552   -1.2402 N.pl3   1  UNL11      -0.2204
      8 C           1.4024   -1.7795   -0.4146 C.ar    1  UNL11       0.1380
      9 C           0.3552   -2.2474    0.3645 C.ar    1  UNL11      -0.0203
     10 C           0.4643   -3.3243    1.2138 C.ar    1  UNL11      -0.0570
     11 C           1.6875   -3.9628    1.2832 C.ar    1  UNL11      -0.0435
     12 C           2.6969   -3.4680    0.4960 C.ar    1  UNL11       0.0297
     13 N           2.5621   -2.4126   -0.3259 N.ar    1  UNL11      -0.2389
     14 C          -1.5748    1.4101    0.0377 C.ar    1  UNL11       0.0912
     15 C          -2.9357    1.4677    0.2423 C.ar    1  UNL11      -0.0341
     16 C          -3.5684    2.6733    0.3870 C.ar    1  UNL11      -0.0583
     17 C          -2.8384    3.8493    0.3280 C.ar    1  UNL11      -0.0436
     18 C          -1.4703    3.7476    0.1204 C.ar    1  UNL11       0.0283
     19 N          -0.9111    2.5492   -0.0130 N.ar    1  UNL11      -0.2534
     20 C          -0.8780   -2.2990   -0.1940 C.ar    1  UNL11      -0.0524
     21 C          -1.1580   -3.5636    0.3392 C.ar    1  UNL11      -0.0611
     22 H          -2.0881   -4.6232    1.9542 H       1  UNL11       0.0618
     23 H          -2.8125   -2.5144    3.0618 H       1  UNL11       0.0618
     24 H          -2.3700   -0.3526    2.1451 H       1  UNL11       0.0624
     25 H           1.6662   -0.5524   -2.1164 H       1  UNL11       0.1760
     26 H          -0.6059   -1.7581    0.3203 H       1  UNL11       0.0652
     27 H          -0.3948   -3.6448    1.8007 H       1  UNL11       0.0619
     28 H           1.7961   -4.8091    1.9422 H       1  UNL11       0.0633
     29 H           3.6792   -3.9605    0.5350 H       1  UNL11       0.0830
     30 H          -3.5117    0.5742    0.2903 H       1  UNL11       0.0639
     31 H          -4.6422    2.7066    0.5479 H       1  UNL11       0.0619
     32 H          -3.2807    4.8237    0.4346 H       1  UNL11       0.0633
     33 H          -0.8542    4.6634    0.0674 H       1  UNL11       0.0830
     34 H          -0.3087   -2.3481   -1.1070 H       1  UNL11       0.0624
     35 H          -0.8396   -4.4701   -0.1469 H       1  UNL11       0.0618
@<TRIPOS>BOND
     1     1     2   ar
     2     1    22    1
     3     2     3   ar
     4     2    23    1
     5     3     4   ar
     6     3    24    1
     7     4     5    1
     8     4    20   ar
     9     5     6    2
    10     5    14    1
    11     6     7    1
    12     7     8    1
    13     7    25    1
    14     8     9   ar
    15     9    10   ar
    16     9    26    1
    17    10    11   ar
    18    10    27    1
    19    11    12   ar
    20    11    28    1
    21    12    13   ar
    22    12    29    1
    23    13     8   ar
    24    14    15   ar
    25    15    16   ar
    26    15    30    1
    27    16    17   ar
    28    16    31    1
    29    17    18   ar
    30    17    32    1
    31    18    19   ar
    32    18    33    1
    33    19    14   ar
    34    20    21   ar
    35    20    34    1
    36    21     1   ar
    37    21    35    1
@<TRIPOS>MOLECULE
*****
 35 37 0 0 0
SMALL
GASTEIGER

@<TRIPOS>ATOM
      1 C          -2.2271   -3.6070    1.3419 C.ar    1  UNL11      -0.0617
      2 C          -0.8863   -3.3201    1.2288 C.ar    1  UNL11      -0.0611
      3 C          -0.3831   -2.1061    0.7774 C.ar    1  UNL11      -0.0524
      4 C          -1.2777   -1.1203    0.4163 C.ar    1  UNL11       0.0039
      5 C          -0.8623    0.1429   -0.1563 C.2     1  UNL11       0.1142
      6 N           0.1961    0.2462   -0.8599 N.2     1  UNL11      -0.1787
      7 N           1.1224   -0.6552   -1.2402 N.pl3   1  UNL11      -0.2204
      8 C           1.8103   -0.4913   -2.4747 C.ar    1  UNL11       0.1380
      9 C           3.1043   -0.9865   -2.5290 C.ar    1  UNL11      -0.0203
     10 C           3.9002   -0.9071   -3.6485 C.ar    1  UNL11      -0.0570
     11 C           3.3684   -0.2994   -4.7695 C.ar    1  UNL11      -0.0435
     12 C           2.0849    0.1768   -4.6734 C.ar    1  UNL11       0.0297
     13 N           1.3290    0.0855   -3.5652 N.ar    1  UNL11      -0.2389
     14 C          -1.5748    1.4101    0.0377 C.ar    1  UNL11       0.0912
     15 C          -0.9289    2.6266    0.0425 C.ar    1  UNL11      -0.0341
     16 C          -1.6259    3.7851    0.2592 C.ar    1  UNL11      -0.0583
     17 C          -2.9934    3.7394    0.4763 C.ar    1  UNL11      -0.0436
     18 C          -3.6057    2.4943    0.4636 C.ar    1  UNL11       0.0283
     19 N          -2.8773    1.4038    0.2478 N.ar    1  UNL11      -0.2534
     20 C          -2.6318   -1.3961    0.5254 C.ar    1  UNL11      -0.0524
     21 C          -3.1222   -2.6256    0.9835 C.ar    1  UNL11      -0.0611
     22 H          -2.5875   -4.5736    1.7012 H       1  UNL11       0.0618
     23 H          -0.1522   -4.0925    1.5104 H       1  UNL11       0.0618
     24 H           0.6968   -1.9880    0.7621 H       1  UNL11       0.0624
     25 H           1.3458   -1.4917   -0.6706 H       1  UNL11       0.1760
     26 H           3.5325   -1.4636   -1.6606 H       1  UNL11       0.0652
     27 H           4.9094   -1.3148   -3.6298 H       1  UNL11       0.0619
     28 H           3.9740   -0.2259   -5.6584 H       1  UNL11       0.0633
     29 H           1.6411    0.6643   -5.5534 H       1  UNL11       0.0830
     30 H           0.1210    2.6800   -0.1225 H       1  UNL11       0.0639
     31 H          -1.1060    4.7388    0.2608 H       1  UNL11       0.0619
     32 H          -3.5920    4.6154    0.6519 H       1  UNL11       0.0633
     33 H          -4.6950    2.4173    0.6329 H       1  UNL11       0.0830
     34 H          -3.4158   -0.7095    0.2539 H       1  UNL11       0.0624
     35 H          -4.1776   -2.8246    1.0617 H       1  UNL11       0.0618
@<TRIPOS>BOND
     1     1     2   ar
     2     1    22    1
     3     2     3   ar
     4     2    23    1
     5     3     4   ar
     6     3    24    1
     7     4     5    1
     8     4    20   ar
     9     5     6    2
    10     5    14    1
    11     6     7    1
    12     7     8    1
    13     7    25    1
    14     8     9   ar
    15     9    10   ar
    16     9    26    1
    17    10    11   ar
    18    10    27    1
    19    11    12   ar
    20    11    28    1
    21    12    13   ar
    22    12    29    1
    23    13     8   ar
    24    14    15   ar
    25    15    16   ar
    26    15    30    1
    27    16    17   ar
    28    16    31    1
    29    17    18   ar
    30    17    32    1
    31    18    19   ar
    32    18    33    1
    33    19    14   ar
    34    20    21   ar
    35    20    34    1
    36    21     1   ar
    37    21    35    1
@<TRIPOS>MOLECULE
*****
 35 37 0 0 0
SMALL
GASTEIGER

@<TRIPOS>ATOM
      1 C          -2.2271   -3.6070    1.3419 C.ar    1  UNL11      -0.0617
      2 C          -0.8863   -3.3201    1.2288 C.ar    1  UNL11      -0.0611
      3 C          -0.3831   -2.1061    0.7774 C.ar    1  UNL11      -0.0524
      4 C          -1.2777   -1.1203    0.4163 C.ar    1  UNL11       0.0039
      5 C          -0.8623    0.1429   -0.1563 C.2     1  UNL11       0.1142
      6 N           0.1961    0.2462   -0.8599 N.2     1  UNL11      -0.1787
      7 N           1.1224   -0.6552   -1.2402 N.pl3   1  UNL11      -0.2204
      8 C           1.8103   -0.4913   -2.4747 C.ar    1  UNL11       0.1380
      9 C           3.1043   -0.9865   -2.5290 C.ar    1  UNL11      -0.0203
     10 C           3.9002   -0.9071   -3.6485 C.ar    1  UNL11      -0.0570
     11 C           3.3684   -0.2994   -4.7695 C.ar    1  UNL11      -0.0435
     12 C           2.0849    0.1768   -4.6734 C.ar    1  UNL11       0.0297
     13 N           1.3290    0.0855   -3.5652 N.ar    1  UNL11      -0.2389
     14 C          -1.5748    1.4101    0.0377 C.ar    1  UNL11       0.0912
     15 C          -2.2997    1.6822    1.1768 C.ar    1  UNL11      -0.0341
     16 C          -2.9777    2.8648    1.3058 C.ar    1  UNL11      -0.0583
     17 C          -2.9378    3.8000    0.2844 C.ar    1  UNL11      -0.0436
     18 C          -2.1965    3.4872   -0.8459 C.ar    1  UNL11       0.0283
     19 N          -1.5588    2.3230   -0.9146 N.ar    1  UNL11      -0.2534
     20 C          -2.6318   -1.3961    0.5254 C.ar    1  UNL11      -0.0524
     21 C          -3.1222   -2.6256    0.9835 C.ar    1  UNL11      -0.0611
     22 H          -2.5875   -4.5736    1.7012 H       1  UNL11       0.0618
     23 H          -0.1522   -4.0925    1.5104 H       1  UNL11       0.0618
     24 H           0.6968   -1.9880    0.7621 H       1  UNL11       0.0624
     25 H           1.3458   -1.4917   -0.6706 H       1  UNL11       0.1760
     26 H           3.5325   -1.4636   -1.6606 H       1  UNL11       0.0652
     27 H           4.9094   -1.3148   -3.6298 H       1  UNL11       0.0619
     28 H           3.9740   -0.2259   -5.6584 H       1  UNL11       0.0633
     29 H           1.6411    0.6643   -5.5534 H       1  UNL11       0.0830
     30 H          -2.3411    0.9751    1.9710 H       1  UNL11       0.0639
     31 H          -3.5462    3.0686    2.2087 H       1  UNL11       0.0619
     32 H          -3.4499    4.7446    0.3298 H       1  UNL11       0.0633
     33 H          -2.1407    4.2078   -1.6818 H       1  UNL11       0.0830
     34 H          -3.4158   -0.7095    0.2539 H       1  UNL11       0.0624
     35 H          -4.1776   -2.8246    1.0617 H       1  UNL11       0.0618
@<TRIPOS>BOND
     1     1     2   ar
     2     1    22    1
     3     2     3   ar
     4     2    23    1
     5     3     4   ar
     6     3    24    1
     7     4     5    1
     8     4    20   ar
     9     5     6    2
    10     5    14    1
    11     6     7    1
    12     7     8    1
    13     7    25    1
    14     8     9   ar
    15     9    10   ar
    16     9    26    1
    17    10    11   ar
    18    10    27    1
    19    11    12   ar
    20    11    28    1
    21    12    13   ar
    22    12    29    1
    23    13     8   ar
    24    14    15   ar
    25    15    16   ar
    26    15    30    1
    27    16    17   ar
    28    16    31    1
    29    17    18   ar
    30    17    32    1
    31    18    19   ar
    32    18    33    1
    33    19    14   ar
    34    20    21   ar
    35    20    34    1
    36    21     1   ar
    37    21    35    1
@<TRIPOS>MOLECULE
*****
 35 37 0 0 0
SMALL
GASTEIGER

@<TRIPOS>ATOM
      1 C          -2.3080   -3.4946    1.5312 C.ar    1  UNL11      -0.0617
      2 C          -1.5152   -3.4859    0.4068 C.ar    1  UNL11      -0.0611
      3 C          -0.9900   -2.3356   -0.1691 C.ar    1  UNL11      -0.0524
      4 C          -1.2777   -1.1203    0.4163 C.ar    1  UNL11       0.0039
      5 C          -0.8623    0.1429   -0.1563 C.2     1  UNL11       0.1142
      6 N           0.1961    0.2462   -0.8599 N.2     1  UNL11      -0.1787
      7 N           1.1224   -0.6552   -1.2402 N.pl3   1  UNL11      -0.2204
      8 C           2.4695   -0.2473   -1.4472 C.ar    1  UNL11       0.1380
      9 C           2.6594    1.0611   -1.8650 C.ar    1  UNL11      -0.0203
     10 C           3.8986    1.6073   -2.1078 C.ar    1  UNL11      -0.0570
     11 C           5.0023    0.7975   -1.9209 C.ar    1  UNL11      -0.0435
     12 C           4.7703   -0.4902   -1.5070 C.ar    1  UNL11       0.0297
     13 N           3.5468   -0.9982   -1.2771 N.ar    1  UNL11      -0.2389
     14 C          -1.5748    1.4101    0.0377 C.ar    1  UNL11       0.0912
     15 C          -2.2997    1.6822    1.1768 C.ar    1  UNL11      -0.0341
     16 C          -2.9777    2.8648    1.3058 C.ar    1  UNL11      -0.0583
     17 C          -2.9378    3.8000    0.2844 C.ar    1  UNL11      -0.0436
     18 C          -2.1965    3.4872   -0.8459 C.ar    1  UNL11       0.0283
     19 N          -1.5588    2.3230   -0.9146 N.ar    1  UNL11      -0.2534
     20 C          -2.0755   -1.1147    1.5499 C.ar    1  UNL11      -0.0524
     21 C          -2.5962   -2.2842    2.1184 C.ar    1  UNL11      -0.0611
     22 H          -2.7041   -4.4192    1.9573 H       1  UNL11       0.0618
     23 H          -1.2725   -4.4448   -0.0794 H       1  UNL11       0.0618
     24 H          -0.3510   -2.4599   -1.0391 H       1  UNL11       0.0624
     25 H           0.8874   -1.6498   -1.4123 H       1  UNL11       0.1760
     26 H           1.8062    1.7050   -2.0151 H       1  UNL11       0.0652
     27 H           3.9837    2.6423   -2.4345 H       1  UNL11       0.0619
     28 H           5.9835    1.2043   -2.1051 H       1  UNL11       0.0633
     29 H           5.6339   -1.1529   -1.3518 H       1  UNL11       0.0830
     30 H          -2.3411    0.9751    1.9710 H       1  UNL11       0.0639
     31 H          -3.5462    3.0686    2.2087 H       1  UNL11       0.0619
     32 H          -3.4499    4.7446    0.3298 H       1  UNL11       0.0633
     33 H          -2.1407    4.2078   -1.6818 H       1  UNL11       0.0830
     34 H          -2.3784   -0.2248    2.0756 H       1  UNL11       0.0624
     35 H          -3.2153   -2.2628    2.9991 H       1  UNL11       0.0618
@<TRIPOS>BOND
     1     1     2   ar
     2     1    22    1
     3     2     3   ar
     4     2    23    1
     5     3     4   ar
     6     3    24    1
     7     4     5    1
     8     4    20   ar
     9     5     6    2
    10     5    14    1
    11     6     7    1
    12     7     8    1
    13     7    25    1
    14     8     9   ar
    15     9    10   ar
    16     9    26    1
    17    10    11   ar
    18    10    27    1
    19    11    12   ar
    20    11    28    1
    21    12    13   ar
    22    12    29    1
    23    13     8   ar
    24    14    15   ar
    25    15    16   ar
    26    15    30    1
    27    16    17   ar
    28    16    31    1
    29    17    18   ar
    30    17    32    1
    31    18    19   ar
    32    18    33    1
    33    19    14   ar
    34    20    21   ar
    35    20    34    1
    36    21     1   ar
    37    21    35    1
@<TRIPOS>MOLECULE
*****
 35 37 0 0 0
SMALL
GASTEIGER

@<TRIPOS>ATOM
      1 C          -1.9419   -3.5324    1.7133 C.ar    1  UNL11      -0.0617
      2 C          -2.8924   -2.6393    1.2754 C.ar    1  UNL11      -0.0611
      3 C          -2.6014   -1.4424    0.6324 C.ar    1  UNL11      -0.0524
      4 C          -1.2777   -1.1203    0.4163 C.ar    1  UNL11       0.0039
      5 C          -0.8623    0.1429   -0.1563 C.2     1  UNL11       0.1142
      6 N           0.1961    0.2462   -0.8599 N.2     1  UNL11      -0.1787
      7 N           1.1224   -0.6552   -1.2402 N.pl3   1  UNL11      -0.2204
      8 C           1.4024   -1.7795   -0.4146 C.ar    1  UNL11       0.1380
      9 C           0.6784   -1.8734    0.7642 C.ar    1  UNL11      -0.0203
     10 C           0.8313   -2.8991    1.6683 C.ar    1  UNL11      -0.0570
     11 C           1.7585   -3.8797    1.3723 C.ar    1  UNL11      -0.0435
     12 C           2.4533   -3.7489    0.1961 C.ar    1  UNL11       0.0297
     13 N           2.2833   -2.7346   -0.6699 N.ar    1  UNL11      -0.2389
     14 C          -1.5748    1.4101    0.0377 C.ar    1  UNL11       0.0912
     15 C          -1.5786    2.4075   -0.9122 C.ar    1  UNL11      -0.0341
     16 C          -2.2294    3.5895   -0.6794 C.ar    1  UNL11      -0.0583
     17 C          -2.8918    3.7897    0.5208 C.ar    1  UNL11      -0.0436
     18 C          -2.8638    2.7603    1.4508 C.ar    1  UNL11       0.0283
     19 N          -2.2156    1.6348    1.1688 N.ar    1  UNL11      -0.2534
     20 C          -0.3096   -2.0115    0.8526 C.ar    1  UNL11      -0.0524
     21 C          -0.6206   -3.2148    1.4985 C.ar    1  UNL11      -0.0611
     22 H          -2.2072   -4.4655    2.2158 H       1  UNL11       0.0618
     23 H          -3.9569   -2.8743    1.4377 H       1  UNL11       0.0618
     24 H          -3.4404   -0.8347    0.3051 H       1  UNL11       0.0624
     25 H           1.6662   -0.5524   -2.1164 H       1  UNL11       0.1760
     26 H          -0.0492   -1.1143    1.0082 H       1  UNL11       0.0652
     27 H           0.2330   -2.9179    2.5777 H       1  UNL11       0.0619
     28 H           1.8951   -4.6932    2.0664 H       1  UNL11       0.0633
     29 H           3.1965   -4.5178   -0.0601 H       1  UNL11       0.0830
     30 H          -1.0748    2.2705   -1.8395 H       1  UNL11       0.0639
     31 H          -2.2256    4.3690   -1.4358 H       1  UNL11       0.0619
     32 H          -3.4191    4.6962    0.7590 H       1  UNL11       0.0633
     33 H          -3.3807    2.8827    2.4198 H       1  UNL11       0.0830
     34 H           0.7510   -1.8530    0.7540 H       1  UNL11       0.0624
     35 H           0.1435   -3.8963    1.8323 H       1  UNL11       0.0618
@<TRIPOS>BOND
     1     1     2   ar
     2     1    22    1
     3     2     3   ar
     4     2    23    1
     5     3     4   ar
     6     3    24    1
     7     4     5    1
     8     4    20   ar
     9     5     6    2
    10     5    14    1
    11     6     7    1
    12     7     8    1
    13     7    25    1
    14     8     9   ar
    15     9    10   ar
    16     9    26    1
    17    10    11   ar
    18    10    27    1
    19    11    12   ar
    20    11    28    1
    21    12    13   ar
    22    12    29    1
    23    13     8   ar
    24    14    15   ar
    25    15    16   ar
    26    15    30    1
    27    16    17   ar
    28    16    31    1
    29    17    18   ar
    30    17    32    1
    31    18    19   ar
    32    18    33    1
    33    19    14   ar
    34    20    21   ar
    35    20    34    1
    36    21     1   ar
    37    21    35    1
@<TRIPOS>MOLECULE
*****
 35 37 0 0 0
SMALL
GASTEIGER

@<TRIPOS>ATOM
      1 C          -1.8592   -3.6473    1.5200 C.ar    1  UNL11      -0.0617
      2 C          -2.2499   -2.4700    2.1151 C.ar    1  UNL11      -0.0611
      3 C          -1.9814   -1.2080    1.5994 C.ar    1  UNL11      -0.0524
      4 C          -1.2777   -1.1203    0.4163 C.ar    1  UNL11       0.0039
      5 C          -0.8623    0.1429   -0.1563 C.2     1  UNL11       0.1142
      6 N           0.1961    0.2462   -0.8599 N.2     1  UNL11      -0.1787
      7 N           1.1224   -0.6552   -1.2402 N.pl3   1  UNL11      -0.2204
      8 C           1.8103   -0.4913   -2.4747 C.ar    1  UNL11       0.1380
      9 C           3.1043   -0.9865   -2.5290 C.ar    1  UNL11      -0.0203
     10 C           3.9002   -0.9071   -3.6485 C.ar    1  UNL11      -0.0570
     11 C           3.3684   -0.2994   -4.7695 C.ar    1  UNL11      -0.0435
     12 C           2.0849    0.1768   -4.6734 C.ar    1  UNL11       0.0297
     13 N           1.3290    0.0855   -3.5652 N.ar    1  UNL11      -0.2389
     14 C          -1.5748    1.4101    0.0377 C.ar    1  UNL11       0.0912
     15 C          -2.2997    1.6822    1.1768 C.ar    1  UNL11      -0.0341
     16 C          -2.9777    2.8648    1.3058 C.ar    1  UNL11      -0.0583
     17 C          -2.9378    3.8000    0.2844 C.ar    1  UNL11      -0.0436
     18 C          -2.1965    3.4872   -0.8459 C.ar    1  UNL11       0.0283
     19 N          -1.5588    2.3230   -0.9146 N.ar    1  UNL11      -0.2534
     20 C          -0.8780   -2.2990   -0.1940 C.ar    1  UNL11      -0.0524
     21 C          -1.1580   -3.5636    0.3392 C.ar    1  UNL11      -0.0611
     22 H          -2.0881   -4.6232    1.9542 H       1  UNL11       0.0618
     23 H          -2.8125   -2.5144    3.0618 H       1  UNL11       0.0618
     24 H          -2.3700   -0.3526    2.1451 H       1  UNL11       0.0624
     25 H           1.3458   -1.4917   -0.6706 H       1  UNL11       0.1760
     26 H           3.5325   -1.4636   -1.6606 H       1  UNL11       0.0652
     27 H           4.9094   -1.3148   -3.6298 H       1  UNL11       0.0619
     28 H           3.9740   -0.2259   -5.6584 H       1  UNL11       0.0633
     29 H           1.6411    0.6643   -5.5534 H       1  UNL11       0.0830
     30 H          -2.3411    0.9751    1.9710 H       1  UNL11       0.0639
     31 H          -3.5462    3.0686    2.2087 H       1  UNL11       0.0619
     32 H          -3.4499    4.7446    0.3298 H       1  UNL11       0.0633
     33 H          -2.1407    4.2078   -1.6818 H       1  UNL11       0.0830
     34 H          -0.3087   -2.3481   -1.1070 H       1  UNL11       0.0624
     35 H          -0.8396   -4.4701   -0.1469 H       1  UNL11       0.0618
@<TRIPOS>BOND
     1     1     2   ar
     2     1    22    1
     3     2     3   ar
     4     2    23    1
     5     3     4   ar
     6     3    24    1
     7     4     5    1
     8     4    20   ar
     9     5     6    2
    10     5    14    1
    11     6     7    1
    12     7     8    1
    13     7    25    1
    14     8     9   ar
    15     9    10   ar
    16     9    26    1
    17    10    11   ar
    18    10    27    1
    19    11    12   ar
    20    11    28    1
    21    12    13   ar
    22    12    29    1
    23    13     8   ar
    24    14    15   ar
    25    15    16   ar
    26    15    30    1
    27    16    17   ar
    28    16    31    1
    29    17    18   ar
    30    17    32    1
    31    18    19   ar
    32    18    33    1
    33    19    14   ar
    34    20    21   ar
    35    20    34    1
    36    21     1   ar
    37    21    35    1
@<TRIPOS>MOLECULE
*****
 35 37 0 0 0
SMALL
GASTEIGER

@<TRIPOS>ATOM
      1 C          -1.9419   -3.5324    1.7133 C.ar    1  UNL11      -0.0617
      2 C          -2.8924   -2.6393    1.2754 C.ar    1  UNL11      -0.0611
      3 C          -2.6014   -1.4424    0.6324 C.ar    1  UNL11      -0.0524
      4 C          -1.2777   -1.1203    0.4163 C.ar    1  UNL11       0.0039
      5 C          -0.8623    0.1429   -0.1563 C.2     1  UNL11       0.1142
      6 N           0.1961    0.2462   -0.8599 N.2     1  UNL11      -0.1787
      7 N           1.1224   -0.6552   -1.2402 N.pl3   1  UNL11      -0.2204
      8 C           2.4695   -0.2473   -1.4472 C.ar    1  UNL11       0.1380
      9 C           3.1881   -0.9554   -2.3984 C.ar    1  UNL11      -0.0203
     10 C           4.4992   -0.6843   -2.7151 C.ar    1  UNL11      -0.0570
     11 C           5.1190    0.3509   -2.0418 C.ar    1  UNL11      -0.0435
     12 C           4.3724    1.0257   -1.1088 C.ar    1  UNL11       0.0297
     13 N           3.0912    0.7389   -0.8191 N.ar    1  UNL11      -0.2389
     14 C          -1.5748    1.4101    0.0377 C.ar    1  UNL11       0.0912
     15 C          -2.2997    1.6822    1.1768 C.ar    1  UNL11      -0.0341
     16 C          -2.9777    2.8648    1.3058 C.ar    1  UNL11      -0.0583
     17 C          -2.9378    3.8000    0.2844 C.ar    1  UNL11      -0.0436
     18 C          -2.1965    3.4872   -0.8459 C.ar    1  UNL11       0.0283
     19 N          -1.5588    2.3230   -0.9146 N.ar    1  UNL11      -0.2534
     20 C          -0.3096   -2.0115    0.8526 C.ar    1  UNL11      -0.0524
     21 C          -0.6206   -3.2148    1.4985 C.ar    1  UNL11      -0.0611
     22 H          -2.2072   -4.4655    2.2158 H       1  UNL11       0.0618
     23 H          -3.9569   -2.8743    1.4377 H       1  UNL11       0.0618
     24 H          -3.4404   -0.8347    0.3051 H       1  UNL11       0.0624
     25 H           0.8874   -1.6498   -1.4123 H       1  UNL11       0.1760
     26 H           2.7165   -1.7666   -2.9320 H       1  UNL11       0.0652
     27 H           5.0108   -1.2763   -3.4721 H       1  UNL11       0.0619
     28 H           6.1463    0.5813   -2.2738 H       1  UNL11       0.0633
     29 H           4.8452    1.8534   -0.5606 H       1  UNL11       0.0830
     30 H          -2.3411    0.9751    1.9710 H       1  UNL11       0.0639
     31 H          -3.5462    3.0686    2.2087 H       1  UNL11       0.0619
     32 H          -3.4499    4.7446    0.3298 H       1  UNL11       0.0633
     33 H          -2.1407    4.2078   -1.6818 H       1  UNL11       0.0830
     34 H           0.7510   -1.8530    0.7540 H       1  UNL11       0.0624
     35 H           0.1435   -3.8963    1.8323 H       1  UNL11       0.0618
@<TRIPOS>BOND
     1     1     2   ar
     2     1    22    1
     3     2     3   ar
     4     2    23    1
     5     3     4   ar
     6     3    24    1
     7     4     5    1
     8     4    20   ar
     9     5     6    2
    10     5    14    1
    11     6     7    1
    12     7     8    1
    13     7    25    1
    14     8     9   ar
    15     9    10   ar
    16     9    26    1
    17    10    11   ar
    18    10    27    1
    19    11    12   ar
    20    11    28    1
    21    12    13   ar
    22    12    29    1
    23    13     8   ar
    24    14    15   ar
    25    15    16   ar
    26    15    30    1
    27    16    17   ar
    28    16    31    1
    29    17    18   ar
    30    17    32    1
    31    18    19   ar
    32    18    33    1
    33    19    14   ar
    34    20    21   ar
    35    20    34    1
    36    21     1   ar
    37    21    35    1
@<TRIPOS>MOLECULE
*****
 35 37 0 0 0
SMALL
GASTEIGER

@<TRIPOS>ATOM
      1 C          -1.8592   -3.6473    1.5200 C.ar    1  UNL11      -0.0617
      2 C          -2.2499   -2.4700    2.1151 C.ar    1  UNL11      -0.0611
      3 C          -1.9814   -1.2080    1.5994 C.ar    1  UNL11      -0.0524
      4 C          -1.2777   -1.1203    0.4163 C.ar    1  UNL11       0.0039
      5 C          -0.8623    0.1429   -0.1563 C.2     1  UNL11       0.1142
      6 N           0.1961    0.2462   -0.8599 N.2     1  UNL11      -0.1787
      7 N           1.1224   -0.6552   -1.2402 N.pl3   1  UNL11      -0.2204
      8 C           1.8103   -0.4913   -2.4747 C.ar    1  UNL11       0.1380
      9 C           1.1171    0.1593   -3.4841 C.ar    1  UNL11      -0.0203
     10 C           1.6423    0.3964   -4.7335 C.ar    1  UNL11      -0.0570
     11 C           2.9289   -0.0425   -4.9803 C.ar    1  UNL11      -0.0435
     12 C           3.5793   -0.6814   -3.9546 C.ar    1  UNL11       0.0297
     13 N           3.0411   -0.8999   -2.7421 N.ar    1  UNL11      -0.2389
     14 C          -1.5748    1.4101    0.0377 C.ar    1  UNL11       0.0912
     15 C          -2.2997    1.6822    1.1768 C.ar    1  UNL11      -0.0341
     16 C          -2.9777    2.8648    1.3058 C.ar    1  UNL11      -0.0583
     17 C          -2.9378    3.8000    0.2844 C.ar    1  UNL11      -0.0436
     18 C          -2.1965    3.4872   -0.8459 C.ar    1  UNL11       0.0283
     19 N          -1.5588    2.3230   -0.9146 N.ar    1  UNL11      -0.2534
     20 C          -0.8780   -2.2990   -0.1940 C.ar    1  UNL11      -0.0524
     21 C          -1.1580   -3.5636    0.3392 C.ar    1  UNL11      -0.0611
     22 H          -2.0881   -4.6232    1.9542 H       1  UNL11       0.0618
     23 H          -2.8125   -2.5144    3.0618 H       1  UNL11       0.0618
     24 H          -2.3700   -0.3526    2.1451 H       1  UNL11       0.0624
     25 H           1.3458   -1.4917   -0.6706 H       1  UNL11       0.1760
     26 H           0.1112    0.5075   -3.3052 H       1  UNL11       0.0652
     27 H           1.0482    0.9130   -5.4855 H       1  UNL11       0.0619
     28 H           3.3609    0.1324   -5.9525 H       1  UNL11       0.0633
     29 H           4.6044   -1.0394   -4.1285 H       1  UNL11       0.0830
     30 H          -2.3411    0.9751    1.9710 H       1  UNL11       0.0639
     31 H          -3.5462    3.0686    2.2087 H       1  UNL11       0.0619
     32 H          -3.4499    4.7446    0.3298 H       1  UNL11       0.0633
     33 H          -2.1407    4.2078   -1.6818 H       1  UNL11       0.0830
     34 H          -0.3087   -2.3481   -1.1070 H       1  UNL11       0.0624
     35 H          -0.8396   -4.4701   -0.1469 H       1  UNL11       0.0618
@<TRIPOS>BOND
     1     1     2   ar
     2     1    22    1
     3     2     3   ar
     4     2    23    1
     5     3     4   ar
     6     3    24    1
     7     4     5    1
     8     4    20   ar
     9     5     6    2
    10     5    14    1
    11     6     7    1
    12     7     8    1
    13     7    25    1
    14     8     9   ar
    15     9    10   ar
    16     9    26    1
    17    10    11   ar
    18    10    27    1
    19    11    12   ar
    20    11    28    1
    21    12    13   ar
    22    12    29    1
    23    13     8   ar
    24    14    15   ar
    25    15    16   ar
    26    15    30    1
    27    16    17   ar
    28    16    31    1
    29    17    18   ar
    30    17    32    1
    31    18    19   ar
    32    18    33    1
    33    19    14   ar
    34    20    21   ar
    35    20    34    1
    36    21     1   ar
    37    21    35    1
@<TRIPOS>MOLECULE
*****
 35 37 0 0 0
SMALL
GASTEIGER

@<TRIPOS>ATOM
      1 C          -2.2953   -3.5479    1.4229 C.ar    1  UNL11      -0.0617
      2 C          -1.0972   -3.4671    0.7515 C.ar    1  UNL11      -0.0611
      3 C          -0.5653   -2.2886    0.2428 C.ar    1  UNL11      -0.0524
      4 C          -1.2777   -1.1203    0.4163 C.ar    1  UNL11       0.0039
      5 C          -0.8623    0.1429   -0.1563 C.2     1  UNL11       0.1142
      6 N           0.1961    0.2462   -0.8599 N.2     1  UNL11      -0.1787
      7 N           1.1224   -0.6552   -1.2402 N.pl3   1  UNL11      -0.2204
      8 C           0.7571   -2.0183   -1.4205 C.ar    1  UNL11       0.1380
      9 C          -0.5503   -2.2584   -1.8150 C.ar    1  UNL11      -0.0203
     10 C          -1.0576   -3.5188   -2.0319 C.ar    1  UNL11      -0.0570
     11 C          -0.2078   -4.5915   -1.8428 C.ar    1  UNL11      -0.0435
     12 C           1.0774   -4.3101   -1.4525 C.ar    1  UNL11       0.0297
     13 N           1.5469   -3.0670   -1.2475 N.ar    1  UNL11      -0.2389
     14 C          -1.5748    1.4101    0.0377 C.ar    1  UNL11       0.0912
     15 C          -2.7208    1.5038    0.7960 C.ar    1  UNL11      -0.0341
     16 C          -3.3747    2.6997    0.9262 C.ar    1  UNL11      -0.0583
     17 C          -2.8840    3.8292    0.2917 C.ar    1  UNL11      -0.0436
     18 C          -1.7274    3.6922   -0.4625 C.ar    1  UNL11       0.0283
     19 N          -1.1358    2.5054   -0.5524 N.ar    1  UNL11      -0.2534
     20 C          -2.4867   -1.1874    1.0912 C.ar    1  UNL11      -0.0524
     21 C          -3.0081   -2.3843    1.5987 C.ar    1  UNL11      -0.0611
     22 H          -2.6834   -4.4928    1.8100 H       1  UNL11       0.0618
     23 H          -0.5103   -4.3877    0.5995 H       1  UNL11       0.0618
     24 H           0.4056   -2.3472   -0.2415 H       1  UNL11       0.0624
     25 H           2.1149   -0.3976   -1.3903 H       1  UNL11       0.1760
     26 H          -1.2252   -1.4297   -1.9665 H       1  UNL11       0.0652
     27 H          -2.0940   -3.6435   -2.3411 H       1  UNL11       0.0619
     28 H          -0.5837   -5.5885   -2.0070 H       1  UNL11       0.0633
     29 H           1.7715   -5.1485   -1.2959 H       1  UNL11       0.0830
     30 H          -3.1116    0.6461    1.2903 H       1  UNL11       0.0639
     31 H          -4.2777    2.7616    1.5269 H       1  UNL11       0.0619
     32 H          -3.3547    4.7938    0.3578 H       1  UNL11       0.0633
     33 H          -1.3054    4.5705   -0.9836 H       1  UNL11       0.0830
     34 H          -3.1328   -0.3437    1.2661 H       1  UNL11       0.0624
     35 H          -3.9496   -2.4198    2.1202 H       1  UNL11       0.0618
@<TRIPOS>BOND
     1     1     2   ar
     2     1    22    1
     3     2     3   ar
     4     2    23    1
     5     3     4   ar
     6     3    24    1
     7     4     5    1
     8     4    20   ar
     9     5     6    2
    10     5    14    1
    11     6     7    1
    12     7     8    1
    13     7    25    1
    14     8     9   ar
    15     9    10   ar
    16     9    26    1
    17    10    11   ar
    18    10    27    1
    19    11    12   ar
    20    11    28    1
    21    12    13   ar
    22    12    29    1
    23    13     8   ar
    24    14    15   ar
    25    15    16   ar
    26    15    30    1
    27    16    17   ar
    28    16    31    1
    29    17    18   ar
    30    17    32    1
    31    18    19   ar
    32    18    33    1
    33    19    14   ar
    34    20    21   ar
    35    20    34    1
    36    21     1   ar
    37    21    35    1
@<TRIPOS>MOLECULE
*****
 35 37 0 0 0
SMALL
GASTEIGER

@<TRIPOS>ATOM
      1 C          -1.8726   -3.5915    1.6333 C.ar    1  UNL11      -0.0617
      2 C          -2.6873   -2.4896    1.7544 C.ar    1  UNL11      -0.0611
      3 C          -2.4259   -1.2572    1.1683 C.ar    1  UNL11      -0.0524
      4 C          -1.2777   -1.1203    0.4163 C.ar    1  UNL11       0.0039
      5 C          -0.8623    0.1429   -0.1563 C.2     1  UNL11       0.1142
      6 N           0.1961    0.2462   -0.8599 N.2     1  UNL11      -0.1787
      7 N           1.1224   -0.6552   -1.2402 N.pl3   1  UNL11      -0.2204
      8 C           2.4695   -0.2473   -1.4472 C.ar    1  UNL11       0.1380
      9 C           3.4466   -1.1980   -1.1938 C.ar    1  UNL11      -0.0203
     10 C           4.7932   -0.9606   -1.3464 C.ar    1  UNL11      -0.0570
     11 C           5.1767    0.2956   -1.7751 C.ar    1  UNL11      -0.0435
     12 C           4.1785    1.2065   -2.0144 C.ar    1  UNL11       0.0297
     13 N           2.8688    0.9470   -1.8567 N.ar    1  UNL11      -0.2389
     14 C          -1.5748    1.4101    0.0377 C.ar    1  UNL11       0.0912
     15 C          -2.2997    1.6822    1.1768 C.ar    1  UNL11      -0.0341
     16 C          -2.9777    2.8648    1.3058 C.ar    1  UNL11      -0.0583
     17 C          -2.9378    3.8000    0.2844 C.ar    1  UNL11      -0.0436
     18 C          -2.1965    3.4872   -0.8459 C.ar    1  UNL11       0.0283
     19 N          -1.5588    2.3230   -0.9146 N.ar    1  UNL11      -0.2534
     20 C          -0.4477   -2.2229    0.2860 C.ar    1  UNL11      -0.0524
     21 C          -0.7269   -3.4589    0.8830 C.ar    1  UNL11      -0.0611
     22 H          -2.1097   -4.5462    2.1084 H       1  UNL11       0.0618
     23 H          -3.6100   -2.5742    2.3514 H       1  UNL11       0.0618
     24 H          -3.1617   -0.4705    1.3105 H       1  UNL11       0.0624
     25 H           0.8874   -1.6498   -1.4123 H       1  UNL11       0.1760
     26 H           3.1613   -2.1835   -0.8583 H       1  UNL11       0.0652
     27 H           5.5133   -1.7483   -1.1315 H       1  UNL11       0.0619
     28 H           6.2268    0.5041   -1.9017 H       1  UNL11       0.0633
     29 H           4.4605    2.2128   -2.3564 H       1  UNL11       0.0830
     30 H          -2.3411    0.9751    1.9710 H       1  UNL11       0.0639
     31 H          -3.5462    3.0686    2.2087 H       1  UNL11       0.0619
     32 H          -3.4499    4.7446    0.3298 H       1  UNL11       0.0633
     33 H          -2.1407    4.2078   -1.6818 H       1  UNL11       0.0830
     34 H           0.4807   -2.2237   -0.2599 H       1  UNL11       0.0624
     35 H          -0.0712   -4.3059    0.7728 H       1  UNL11       0.0618
@<TRIPOS>BOND
     1     1     2   ar
     2     1    22    1
     3     2     3   ar
     4     2    23    1
     5     3     4   ar
     6     3    24    1
     7     4     5    1
     8     4    20   ar
     9     5     6    2
    10     5    14    1
    11     6     7    1
    12     7     8    1
    13     7    25    1
    14     8     9   ar
    15     9    10   ar
    16     9    26    1
    17    10    11   ar
    18    10    27    1
    19    11    12   ar
    20    11    28    1
    21    12    13   ar
    22    12    29    1
    23    13     8   ar
    24    14    15   ar
    25    15    16   ar
    26    15    30    1
    27    16    17   ar
    28    16    31    1
    29    17    18   ar
    30    17    32    1
    31    18    19   ar
    32    18    33    1
    33    19    14   ar
    34    20    21   ar
    35    20    34    1
    36    21     1   ar
    37    21    35    1
@<TRIPOS>MOLECULE
*****
 35 37 0 0 0
SMALL
GASTEIGER

@<TRIPOS>ATOM
      1 C          -2.3080   -3.4946    1.5312 C.ar    1  UNL11      -0.0617
      2 C          -1.5152   -3.4859    0.4068 C.ar    1  UNL11      -0.0611
      3 C          -0.9900   -2.3356   -0.1691 C.ar    1  UNL11      -0.0524
      4 C          -1.2777   -1.1203    0.4163 C.ar    1  UNL11       0.0039
      5 C          -0.8623    0.1429   -0.1563 C.2     1  UNL11       0.1142
      6 N           0.1961    0.2462   -0.8599 N.2     1  UNL11      -0.1787
      7 N           1.1224   -0.6552   -1.2402 N.pl3   1  UNL11      -0.2204
      8 C           1.4024   -1.7795   -0.4146 C.ar    1  UNL11       0.1380
      9 C           1.2230   -1.6022    0.9488 C.ar    1  UNL11      -0.0203
     10 C           1.4500   -2.5908    1.8784 C.ar    1  UNL11      -0.0570
     11 C           1.8788   -3.8192    1.4139 C.ar    1  UNL11      -0.0435
     12 C           2.0437   -3.9523    0.0580 C.ar    1  UNL11       0.0297
     13 N           1.8142   -2.9680   -0.8286 N.ar    1  UNL11      -0.2389
     14 C          -1.5748    1.4101    0.0377 C.ar    1  UNL11       0.0912
     15 C          -1.5786    2.4075   -0.9122 C.ar    1  UNL11      -0.0341
     16 C          -2.2294    3.5895   -0.6794 C.ar    1  UNL11      -0.0583
     17 C          -2.8918    3.7897    0.5208 C.ar    1  UNL11      -0.0436
     18 C          -2.8638    2.7603    1.4508 C.ar    1  UNL11       0.0283
     19 N          -2.2156    1.6348    1.1688 N.ar    1  UNL11      -0.2534
     20 C          -2.0755   -1.1147    1.5499 C.ar    1  UNL11      -0.0524
     21 C          -2.5962   -2.2842    2.1184 C.ar    1  UNL11      -0.0611
     22 H          -2.7041   -4.4192    1.9573 H       1  UNL11       0.0618
     23 H          -1.2725   -4.4448   -0.0794 H       1  UNL11       0.0618
     24 H          -0.3510   -2.4599   -1.0391 H       1  UNL11       0.0624
     25 H           1.6662   -0.5524   -2.1164 H       1  UNL11       0.1760
     26 H           0.8883   -0.6476    1.3257 H       1  UNL11       0.0652
     27 H           1.2910   -2.3908    2.9367 H       1  UNL11       0.0619
     28 H           2.0630   -4.6088    2.1244 H       1  UNL11       0.0633
     29 H           2.3844   -4.9214   -0.3344 H       1  UNL11       0.0830
     30 H          -1.0748    2.2705   -1.8395 H       1  UNL11       0.0639
     31 H          -2.2256    4.3690   -1.4358 H       1  UNL11       0.0619
     32 H          -3.4191    4.6962    0.7590 H       1  UNL11       0.0633
     33 H          -3.3807    2.8827    2.4198 H       1  UNL11       0.0830
     34 H          -2.3784   -0.2248    2.0756 H       1  UNL11       0.0624
     35 H          -3.2153   -2.2628    2.9991 H       1  UNL11       0.0618
@<TRIPOS>BOND
     1     1     2   ar
     2     1    22    1
     3     2     3   ar
     4     2    23    1
     5     3     4   ar
     6     3    24    1
     7     4     5    1
     8     4    20   ar
     9     5     6    2
    10     5    14    1
    11     6     7    1
    12     7     8    1
    13     7    25    1
    14     8     9   ar
    15     9    10   ar
    16     9    26    1
    17    10    11   ar
    18    10    27    1
    19    11    12   ar
    20    11    28    1
    21    12    13   ar
    22    12    29    1
    23    13     8   ar
    24    14    15   ar
    25    15    16   ar
    26    15    30    1
    27    16    17   ar
    28    16    31    1
    29    17    18   ar
    30    17    32    1
    31    18    19   ar
    32    18    33    1
    33    19    14   ar
    34    20    21   ar
    35    20    34    1
    36    21     1   ar
    37    21    35    1
@<TRIPOS>MOLECULE
*****
 35 37 0 0 0
SMALL
GASTEIGER

@<TRIPOS>ATOM
      1 C          -2.2271   -3.6070    1.3419 C.ar    1  UNL11      -0.0617
      2 C          -0.8863   -3.3201    1.2288 C.ar    1  UNL11      -0.0611
      3 C          -0.3831   -2.1061    0.7774 C.ar    1  UNL11      -0.0524
      4 C          -1.2777   -1.1203    0.4163 C.ar    1  UNL11       0.0039
      5 C          -0.8623    0.1429   -0.1563 C.2     1  UNL11       0.1142
      6 N           0.1961    0.2462   -0.8599 N.2     1  UNL11      -0.1787
      7 N           1.1224   -0.6552   -1.2402 N.pl3   1  UNL11      -0.2204
      8 C           1.4024   -1.7795   -0.4146 C.ar    1  UNL11       0.1380
      9 C           0.6784   -1.8734    0.7642 C.ar    1  UNL11      -0.0203
     10 C           0.8313   -2.8991    1.6683 C.ar    1  UNL11      -0.0570
     11 C           1.7585   -3.8797    1.3723 C.ar    1  UNL11      -0.0435
     12 C           2.4533   -3.7489    0.1961 C.ar    1  UNL11       0.0297
     13 N           2.2833   -2.7346   -0.6699 N.ar    1  UNL11      -0.2389
     14 C          -1.5748    1.4101    0.0377 C.ar    1  UNL11       0.0912
     15 C          -1.5786    2.4075   -0.9122 C.ar    1  UNL11      -0.0341
     16 C          -2.2294    3.5895   -0.6794 C.ar    1  UNL11      -0.0583
     17 C          -2.8918    3.7897    0.5208 C.ar    1  UNL11      -0.0436
     18 C          -2.8638    2.7603    1.4508 C.ar    1  UNL11       0.0283
     19 N          -2.2156    1.6348    1.1688 N.ar    1  UNL11      -0.2534
     20 C          -2.6318   -1.3961    0.5254 C.ar    1  UNL11      -0.0524
     21 C          -3.1222   -2.6256    0.9835 C.ar    1  UNL11      -0.0611
     22 H          -2.5875   -4.5736    1.7012 H       1  UNL11       0.0618
     23 H          -0.1522   -4.0925    1.5104 H       1  UNL11       0.0618
     24 H           0.6968   -1.9880    0.7621 H       1  UNL11       0.0624
     25 H           1.6662   -0.5524   -2.1164 H       1  UNL11       0.1760
     26 H          -0.0492   -1.1143    1.0082 H       1  UNL11       0.0652
     27 H           0.2330   -2.9179    2.5777 H       1  UNL11       0.0619
     28 H           1.8951   -4.6932    2.0664 H       1  UNL11       0.0633
     29 H           3.1965   -4.5178   -0.0601 H       1  UNL11       0.0830
     30 H          -1.0748    2.2705   -1.8395 H       1  UNL11       0.0639
     31 H          -2.2256    4.3690   -1.4358 H       1  UNL11       0.0619
     32 H          -3.4191    4.6962    0.7590 H       1  UNL11       0.0633
     33 H          -3.3807    2.8827    2.4198 H       1  UNL11       0.0830
     34 H          -3.4158   -0.7095    0.2539 H       1  UNL11       0.0624
     35 H          -4.1776   -2.8246    1.0617 H       1  UNL11       0.0618
@<TRIPOS>BOND
     1     1     2   ar
     2     1    22    1
     3     2     3   ar
     4     2    23    1
     5     3     4   ar
     6     3    24    1
     7     4     5    1
     8     4    20   ar
     9     5     6    2
    10     5    14    1
    11     6     7    1
    12     7     8    1
    13     7    25    1
    14     8     9   ar
    15     9    10   ar
    16     9    26    1
    17    10    11   ar
    18    10    27    1
    19    11    12   ar
    20    11    28    1
    21    12    13   ar
    22    12    29    1
    23    13     8   ar
    24    14    15   ar
    25    15    16   ar
    26    15    30    1
    27    16    17   ar
    28    16    31    1
    29    17    18   ar
    30    17    32    1
    31    18    19   ar
    32    18    33    1
    33    19    14   ar
    34    20    21   ar
    35    20    34    1
    36    21     1   ar
    37    21    35    1
@<TRIPOS>MOLECULE
*****
 35 37 0 0 0
SMALL
GASTEIGER

@<TRIPOS>ATOM
      1 C          -1.8592   -3.6473    1.5200 C.ar    1  UNL11      -0.0617
      2 C          -2.2499   -2.4700    2.1151 C.ar    1  UNL11      -0.0611
      3 C          -1.9814   -1.2080    1.5994 C.ar    1  UNL11      -0.0524
      4 C          -1.2777   -1.1203    0.4163 C.ar    1  UNL11       0.0039
      5 C          -0.8623    0.1429   -0.1563 C.2     1  UNL11       0.1142
      6 N           0.1961    0.2462   -0.8599 N.2     1  UNL11      -0.1787
      7 N           1.1224   -0.6552   -1.2402 N.pl3   1  UNL11      -0.2204
      8 C           1.8103   -0.4913   -2.4747 C.ar    1  UNL11       0.1380
      9 C           1.9874    0.8125   -2.9125 C.ar    1  UNL11      -0.0203
     10 C           2.6317    1.1381   -4.0837 C.ar    1  UNL11      -0.0570
     11 C           3.1227    0.1010   -4.8533 C.ar    1  UNL11      -0.0435
     12 C           2.9262   -1.1735   -4.3839 C.ar    1  UNL11       0.0297
     13 N           2.2920   -1.4631   -3.2343 N.ar    1  UNL11      -0.2389
     14 C          -1.5748    1.4101    0.0377 C.ar    1  UNL11       0.0912
     15 C          -0.9289    2.6266    0.0425 C.ar    1  UNL11      -0.0341
     16 C          -1.6259    3.7851    0.2592 C.ar    1  UNL11      -0.0583
     17 C          -2.9934    3.7394    0.4763 C.ar    1  UNL11      -0.0436
     18 C          -3.6057    2.4943    0.4636 C.ar    1  UNL11       0.0283
     19 N          -2.8773    1.4038    0.2478 N.ar    1  UNL11      -0.2534
     20 C          -0.8780   -2.2990   -0.1940 C.ar    1  UNL11      -0.0524
     21 C          -1.1580   -3.5636    0.3392 C.ar    1  UNL11      -0.0611
     22 H          -2.0881   -4.6232    1.9542 H       1  UNL11       0.0618
     23 H          -2.8125   -2.5144    3.0618 H       1  UNL11       0.0618
     24 H          -2.3700   -0.3526    2.1451 H       1  UNL11       0.0624
     25 H           1.3458   -1.4917   -0.6706 H       1  UNL11       0.1760
     26 H           1.6089    1.6324   -2.3212 H       1  UNL11       0.0652
     27 H           2.7398    2.1816   -4.3744 H       1  UNL11       0.0619
     28 H           3.6312    0.3326   -5.7752 H       1  UNL11       0.0633
     29 H           3.3085   -2.0147   -4.9801 H       1  UNL11       0.0830
     30 H           0.1210    2.6800   -0.1225 H       1  UNL11       0.0639
     31 H          -1.1060    4.7388    0.2608 H       1  UNL11       0.0619
     32 H          -3.5920    4.6154    0.6519 H       1  UNL11       0.0633
     33 H          -4.6950    2.4173    0.6329 H       1  UNL11       0.0830
     34 H          -0.3087   -2.3481   -1.1070 H       1  UNL11       0.0624
     35 H          -0.8396   -4.4701   -0.1469 H       1  UNL11       0.0618
@<TRIPOS>BOND
     1     1     2   ar
     2     1    22    1
     3     2     3   ar
     4     2    23    1
     5     3     4   ar
     6     3    24    1
     7     4     5    1
     8     4    20   ar
     9     5     6    2
    10     5    14    1
    11     6     7    1
    12     7     8    1
    13     7    25    1
    14     8     9   ar
    15     9    10   ar
    16     9    26    1
    17    10    11   ar
    18    10    27    1
    19    11    12   ar
    20    11    28    1
    21    12    13   ar
    22    12    29    1
    23    13     8   ar
    24    14    15   ar
    25    15    16   ar
    26    15    30    1
    27    16    17   ar
    28    16    31    1
    29    17    18   ar
    30    17    32    1
    31    18    19   ar
    32    18    33    1
    33    19    14   ar
    34    20    21   ar
    35    20    34    1
    36    21     1   ar
    37    21    35    1
@<TRIPOS>MOLECULE
*****
 35 37 0 0 0
SMALL
GASTEIGER

@<TRIPOS>ATOM
      1 C          -1.8726   -3.5915    1.6333 C.ar    1  UNL11      -0.0617
      2 C          -2.6873   -2.4896    1.7544 C.ar    1  UNL11      -0.0611
      3 C          -2.4259   -1.2572    1.1683 C.ar    1  UNL11      -0.0524
      4 C          -1.2777   -1.1203    0.4163 C.ar    1  UNL11       0.0039
      5 C          -0.8623    0.1429   -0.1563 C.2     1  UNL11       0.1142
      6 N           0.1961    0.2462   -0.8599 N.2     1  UNL11      -0.1787
      7 N           1.1224   -0.6552   -1.2402 N.pl3   1  UNL11      -0.2204
      8 C           1.8103   -0.4913   -2.4747 C.ar    1  UNL11       0.1380
      9 C           1.1171    0.1593   -3.4841 C.ar    1  UNL11      -0.0203
     10 C           1.6423    0.3964   -4.7335 C.ar    1  UNL11      -0.0570
     11 C           2.9289   -0.0425   -4.9803 C.ar    1  UNL11      -0.0435
     12 C           3.5793   -0.6814   -3.9546 C.ar    1  UNL11       0.0297
     13 N           3.0411   -0.8999   -2.7421 N.ar    1  UNL11      -0.2389
     14 C          -1.5748    1.4101    0.0377 C.ar    1  UNL11       0.0912
     15 C          -0.9289    2.6266    0.0425 C.ar    1  UNL11      -0.0341
     16 C          -1.6259    3.7851    0.2592 C.ar    1  UNL11      -0.0583
     17 C          -2.9934    3.7394    0.4763 C.ar    1  UNL11      -0.0436
     18 C          -3.6057    2.4943    0.4636 C.ar    1  UNL11       0.0283
     19 N          -2.8773    1.4038    0.2478 N.ar    1  UNL11      -0.2534
     20 C          -0.4477   -2.2229    0.2860 C.ar    1  UNL11      -0.0524
     21 C          -0.7269   -3.4589    0.8830 C.ar    1  UNL11      -0.0611
     22 H          -2.1097   -4.5462    2.1084 H       1  UNL11       0.0618
     23 H          -3.6100   -2.5742    2.3514 H       1  UNL11       0.0618
     24 H          -3.1617   -0.4705    1.3105 H       1  UNL11       0.0624
     25 H           1.3458   -1.4917   -0.6706 H       1  UNL11       0.1760
     26 H           0.1112    0.5075   -3.3052 H       1  UNL11       0.0652
     27 H           1.0482    0.9130   -5.4855 H       1  UNL11       0.0619
     28 H           3.3609    0.1324   -5.9525 H       1  UNL11       0.0633
     29 H           4.6044   -1.0394   -4.1285 H       1  UNL11       0.0830
     30 H           0.1210    2.6800   -0.1225 H       1  UNL11       0.0639
     31 H          -1.1060    4.7388    0.2608 H       1  UNL11       0.0619
     32 H          -3.5920    4.6154    0.6519 H       1  UNL11       0.0633
     33 H          -4.6950    2.4173    0.6329 H       1  UNL11       0.0830
     34 H           0.4807   -2.2237   -0.2599 H       1  UNL11       0.0624
     35 H          -0.0712   -4.3059    0.7728 H       1  UNL11       0.0618
@<TRIPOS>BOND
     1     1     2   ar
     2     1    22    1
     3     2     3   ar
     4     2    23    1
     5     3     4   ar
     6     3    24    1
     7     4     5    1
     8     4    20   ar
     9     5     6    2
    10     5    14    1
    11     6     7    1
    12     7     8    1
    13     7    25    1
    14     8     9   ar
    15     9    10   ar
    16     9    26    1
    17    10    11   ar
    18    10    27    1
    19    11    12   ar
    20    11    28    1
    21    12    13   ar
    22    12    29    1
    23    13     8   ar
    24    14    15   ar
    25    15    16   ar
    26    15    30    1
    27    16    17   ar
    28    16    31    1
    29    17    18   ar
    30    17    32    1
    31    18    19   ar
    32    18    33    1
    33    19    14   ar
    34    20    21   ar
    35    20    34    1
    36    21     1   ar
    37    21    35    1
@<TRIPOS>MOLECULE
*****
 35 37 0 0 0
SMALL
GASTEIGER

@<TRIPOS>ATOM
      1 C          -1.9419   -3.5324    1.7133 C.ar    1  UNL11      -0.0617
      2 C          -2.8924   -2.6393    1.2754 C.ar    1  UNL11      -0.0611
      3 C          -2.6014   -1.4424    0.6324 C.ar    1  UNL11      -0.0524
      4 C          -1.2777   -1.1203    0.4163 C.ar    1  UNL11       0.0039
      5 C          -0.8623    0.1429   -0.1563 C.2     1  UNL11       0.1142
      6 N           0.1961    0.2462   -0.8599 N.2     1  UNL11      -0.1787
      7 N           1.1224   -0.6552   -1.2402 N.pl3   1  UNL11      -0.2204
      8 C           1.8103   -0.4913   -2.4747 C.ar    1  UNL11       0.1380
      9 C           1.1171    0.1593   -3.4841 C.ar    1  UNL11      -0.0203
     10 C           1.6423    0.3964   -4.7335 C.ar    1  UNL11      -0.0570
     11 C           2.9289   -0.0425   -4.9803 C.ar    1  UNL11      -0.0435
     12 C           3.5793   -0.6814   -3.9546 C.ar    1  UNL11       0.0297
     13 N           3.0411   -0.8999   -2.7421 N.ar    1  UNL11      -0.2389
     14 C          -1.5748    1.4101    0.0377 C.ar    1  UNL11       0.0912
     15 C          -1.5786    2.4075   -0.9122 C.ar    1  UNL11      -0.0341
     16 C          -2.2294    3.5895   -0.6794 C.ar    1  UNL11      -0.0583
     17 C          -2.8918    3.7897    0.5208 C.ar    1  UNL11      -0.0436
     18 C          -2.8638    2.7603    1.4508 C.ar    1  UNL11       0.0283
     19 N          -2.2156    1.6348    1.1688 N.ar    1  UNL11      -0.2534
     20 C          -0.3096   -2.0115    0.8526 C.ar    1  UNL11      -0.0524
     21 C          -0.6206   -3.2148    1.4985 C.ar    1  UNL11      -0.0611
     22 H          -2.2072   -4.4655    2.2158 H       1  UNL11       0.0618
     23 H          -3.9569   -2.8743    1.4377 H       1  UNL11       0.0618
     24 H          -3.4404   -0.8347    0.3051 H       1  UNL11       0.0624
     25 H           1.3458   -1.4917   -0.6706 H       1  UNL11       0.1760
     26 H           0.1112    0.5075   -3.3052 H       1  UNL11       0.0652
     27 H           1.0482    0.9130   -5.4855 H       1  UNL11       0.0619
     28 H           3.3609    0.1324   -5.9525 H       1  UNL11       0.0633
     29 H           4.6044   -1.0394   -4.1285 H       1  UNL11       0.0830
     30 H          -1.0748    2.2705   -1.8395 H       1  UNL11       0.0639
     31 H          -2.2256    4.3690   -1.4358 H       1  UNL11       0.0619
     32 H          -3.4191    4.6962    0.7590 H       1  UNL11       0.0633
     33 H          -3.3807    2.8827    2.4198 H       1  UNL11       0.0830
     34 H           0.7510   -1.8530    0.7540 H       1  UNL11       0.0624
     35 H           0.1435   -3.8963    1.8323 H       1  UNL11       0.0618
@<TRIPOS>BOND
     1     1     2   ar
     2     1    22    1
     3     2     3   ar
     4     2    23    1
     5     3     4   ar
     6     3    24    1
     7     4     5    1
     8     4    20   ar
     9     5     6    2
    10     5    14    1
    11     6     7    1
    12     7     8    1
    13     7    25    1
    14     8     9   ar
    15     9    10   ar
    16     9    26    1
    17    10    11   ar
    18    10    27    1
    19    11    12   ar
    20    11    28    1
    21    12    13   ar
    22    12    29    1
    23    13     8   ar
    24    14    15   ar
    25    15    16   ar
    26    15    30    1
    27    16    17   ar
    28    16    31    1
    29    17    18   ar
    30    17    32    1
    31    18    19   ar
    32    18    33    1
    33    19    14   ar
    34    20    21   ar
    35    20    34    1
    36    21     1   ar
    37    21    35    1
@<TRIPOS>MOLECULE
*****
 35 37 0 0 0
SMALL
GASTEIGER

@<TRIPOS>ATOM
      1 C          -2.3080   -3.4946    1.5312 C.ar    1  UNL11      -0.0617
      2 C          -1.5152   -3.4859    0.4068 C.ar    1  UNL11      -0.0611
      3 C          -0.9900   -2.3356   -0.1691 C.ar    1  UNL11      -0.0524
      4 C          -1.2777   -1.1203    0.4163 C.ar    1  UNL11       0.0039
      5 C          -0.8623    0.1429   -0.1563 C.2     1  UNL11       0.1142
      6 N           0.1961    0.2462   -0.8599 N.2     1  UNL11      -0.1787
      7 N           1.1224   -0.6552   -1.2402 N.pl3   1  UNL11      -0.2204
      8 C           1.4024   -1.7795   -0.4146 C.ar    1  UNL11       0.1380
      9 C           2.6962   -2.2754   -0.4678 C.ar    1  UNL11      -0.0203
     10 C           3.1252   -3.3552    0.2690 C.ar    1  UNL11      -0.0570
     11 C           2.2075   -3.9670    1.1011 C.ar    1  UNL11      -0.0435
     12 C           0.9385   -3.4450    1.1238 C.ar    1  UNL11       0.0297
     13 N           0.5463   -2.3874    0.3922 N.ar    1  UNL11      -0.2389
     14 C          -1.5748    1.4101    0.0377 C.ar    1  UNL11       0.0912
     15 C          -2.2997    1.6822    1.1768 C.ar    1  UNL11      -0.0341
     16 C          -2.9777    2.8648    1.3058 C.ar    1  UNL11      -0.0583
     17 C          -2.9378    3.8000    0.2844 C.ar    1  UNL11      -0.0436
     18 C          -2.1965    3.4872   -0.8459 C.ar    1  UNL11       0.0283
     19 N          -1.5588    2.3230   -0.9146 N.ar    1  UNL11      -0.2534
     20 C          -2.0755   -1.1147    1.5499 C.ar    1  UNL11      -0.0524
     21 C          -2.5962   -2.2842    2.1184 C.ar    1  UNL11      -0.0611
     22 H          -2.7041   -4.4192    1.9573 H       1  UNL11       0.0618
     23 H          -1.2725   -4.4448   -0.0794 H       1  UNL11       0.0618
     24 H          -0.3510   -2.4599   -1.0391 H       1  UNL11       0.0624
     25 H           1.6662   -0.5524   -2.1164 H       1  UNL11       0.1760
     26 H           3.4236   -1.8073   -1.1135 H       1  UNL11       0.0652
     27 H           4.1549   -3.6985    0.1843 H       1  UNL11       0.0619
     28 H           2.5215   -4.8151    1.6880 H       1  UNL11       0.0633
     29 H           0.1914   -3.9159    1.7788 H       1  UNL11       0.0830
     30 H          -2.3411    0.9751    1.9710 H       1  UNL11       0.0639
     31 H          -3.5462    3.0686    2.2087 H       1  UNL11       0.0619
     32 H          -3.4499    4.7446    0.3298 H       1  UNL11       0.0633
     33 H          -2.1407    4.2078   -1.6818 H       1  UNL11       0.0830
     34 H          -2.3784   -0.2248    2.0756 H       1  UNL11       0.0624
     35 H          -3.2153   -2.2628    2.9991 H       1  UNL11       0.0618
@<TRIPOS>BOND
     1     1     2   ar
     2     1    22    1
     3     2     3   ar
     4     2    23    1
     5     3     4   ar
     6     3    24    1
     7     4     5    1
     8     4    20   ar
     9     5     6    2
    10     5    14    1
    11     6     7    1
    12     7     8    1
    13     7    25    1
    14     8     9   ar
    15     9    10   ar
    16     9    26    1
    17    10    11   ar
    18    10    27    1
    19    11    12   ar
    20    11    28    1
    21    12    13   ar
    22    12    29    1
    23    13     8   ar
    24    14    15   ar
    25    15    16   ar
    26    15    30    1
    27    16    17   ar
    28    16    31    1
    29    17    18   ar
    30    17    32    1
    31    18    19   ar
    32    18    33    1
    33    19    14   ar
    34    20    21   ar
    35    20    34    1
    36    21     1   ar
    37    21    35    1
@<TRIPOS>MOLECULE
*****
 35 37 0 0 0
SMALL
GASTEIGER

@<TRIPOS>ATOM
      1 C          -1.8592   -3.6473    1.5200 C.ar    1  UNL11      -0.0617
      2 C          -2.2499   -2.4700    2.1151 C.ar    1  UNL11      -0.0611
      3 C          -1.9814   -1.2080    1.5994 C.ar    1  UNL11      -0.0524
      4 C          -1.2777   -1.1203    0.4163 C.ar    1  UNL11       0.0039
      5 C          -0.8623    0.1429   -0.1563 C.2     1  UNL11       0.1142
      6 N           0.1961    0.2462   -0.8599 N.2     1  UNL11      -0.1787
      7 N           1.1224   -0.6552   -1.2402 N.pl3   1  UNL11      -0.2204
      8 C           1.8103   -0.4913   -2.4747 C.ar    1  UNL11       0.1380
      9 C           1.1171    0.1593   -3.4841 C.ar    1  UNL11      -0.0203
     10 C           1.6423    0.3964   -4.7335 C.ar    1  UNL11      -0.0570
     11 C           2.9289   -0.0425   -4.9803 C.ar    1  UNL11      -0.0435
     12 C           3.5793   -0.6814   -3.9546 C.ar    1  UNL11       0.0297
     13 N           3.0411   -0.8999   -2.7421 N.ar    1  UNL11      -0.2389
     14 C          -1.5748    1.4101    0.0377 C.ar    1  UNL11       0.0912
     15 C          -1.5786    2.4075   -0.9122 C.ar    1  UNL11      -0.0341
     16 C          -2.2294    3.5895   -0.6794 C.ar    1  UNL11      -0.0583
     17 C          -2.8918    3.7897    0.5208 C.ar    1  UNL11      -0.0436
     18 C          -2.8638    2.7603    1.4508 C.ar    1  UNL11       0.0283
     19 N          -2.2156    1.6348    1.1688 N.ar    1  UNL11      -0.2534
     20 C          -0.8780   -2.2990   -0.1940 C.ar    1  UNL11      -0.0524
     21 C          -1.1580   -3.5636    0.3392 C.ar    1  UNL11      -0.0611
     22 H          -2.0881   -4.6232    1.9542 H       1  UNL11       0.0618
     23 H          -2.8125   -2.5144    3.0618 H       1  UNL11       0.0618
     24 H          -2.3700   -0.3526    2.1451 H       1  UNL11       0.0624
     25 H           1.3458   -1.4917   -0.6706 H       1  UNL11       0.1760
     26 H           0.1112    0.5075   -3.3052 H       1  UNL11       0.0652
     27 H           1.0482    0.9130   -5.4855 H       1  UNL11       0.0619
     28 H           3.3609    0.1324   -5.9525 H       1  UNL11       0.0633
     29 H           4.6044   -1.0394   -4.1285 H       1  UNL11       0.0830
     30 H          -1.0748    2.2705   -1.8395 H       1  UNL11       0.0639
     31 H          -2.2256    4.3690   -1.4358 H       1  UNL11       0.0619
     32 H          -3.4191    4.6962    0.7590 H       1  UNL11       0.0633
     33 H          -3.3807    2.8827    2.4198 H       1  UNL11       0.0830
     34 H          -0.3087   -2.3481   -1.1070 H       1  UNL11       0.0624
     35 H          -0.8396   -4.4701   -0.1469 H       1  UNL11       0.0618
@<TRIPOS>BOND
     1     1     2   ar
     2     1    22    1
     3     2     3   ar
     4     2    23    1
     5     3     4   ar
     6     3    24    1
     7     4     5    1
     8     4    20   ar
     9     5     6    2
    10     5    14    1
    11     6     7    1
    12     7     8    1
    13     7    25    1
    14     8     9   ar
    15     9    10   ar
    16     9    26    1
    17    10    11   ar
    18    10    27    1
    19    11    12   ar
    20    11    28    1
    21    12    13   ar
    22    12    29    1
    23    13     8   ar
    24    14    15   ar
    25    15    16   ar
    26    15    30    1
    27    16    17   ar
    28    16    31    1
    29    17    18   ar
    30    17    32    1
    31    18    19   ar
    32    18    33    1
    33    19    14   ar
    34    20    21   ar
    35    20    34    1
    36    21     1   ar
    37    21    35    1
@<TRIPOS>MOLECULE
*****
 35 37 0 0 0
SMALL
GASTEIGER

@<TRIPOS>ATOM
      1 C          -1.8592   -3.6473    1.5200 C.ar    1  UNL11      -0.0617
      2 C          -2.2499   -2.4700    2.1151 C.ar    1  UNL11      -0.0611
      3 C          -1.9814   -1.2080    1.5994 C.ar    1  UNL11      -0.0524
      4 C          -1.2777   -1.1203    0.4163 C.ar    1  UNL11       0.0039
      5 C          -0.8623    0.1429   -0.1563 C.2     1  UNL11       0.1142
      6 N           0.1961    0.2462   -0.8599 N.2     1  UNL11      -0.1787
      7 N           1.1224   -0.6552   -1.2402 N.pl3   1  UNL11      -0.2204
      8 C           1.8103   -0.4913   -2.4747 C.ar    1  UNL11       0.1380
      9 C           1.9874    0.8125   -2.9125 C.ar    1  UNL11      -0.0203
     10 C           2.6317    1.1381   -4.0837 C.ar    1  UNL11      -0.0570
     11 C           3.1227    0.1010   -4.8533 C.ar    1  UNL11      -0.0435
     12 C           2.9262   -1.1735   -4.3839 C.ar    1  UNL11       0.0297
     13 N           2.2920   -1.4631   -3.2343 N.ar    1  UNL11      -0.2389
     14 C          -1.5748    1.4101    0.0377 C.ar    1  UNL11       0.0912
     15 C          -2.9357    1.4677    0.2423 C.ar    1  UNL11      -0.0341
     16 C          -3.5684    2.6733    0.3870 C.ar    1  UNL11      -0.0583
     17 C          -2.8384    3.8493    0.3280 C.ar    1  UNL11      -0.0436
     18 C          -1.4703    3.7476    0.1204 C.ar    1  UNL11       0.0283
     19 N          -0.9111    2.5492   -0.0130 N.ar    1  UNL11      -0.2534
     20 C          -0.8780   -2.2990   -0.1940 C.ar    1  UNL11      -0.0524
     21 C          -1.1580   -3.5636    0.3392 C.ar    1  UNL11      -0.0611
     22 H          -2.0881   -4.6232    1.9542 H       1  UNL11       0.0618
     23 H          -2.8125   -2.5144    3.0618 H       1  UNL11       0.0618
     24 H          -2.3700   -0.3526    2.1451 H       1  UNL11       0.0624
     25 H           1.3458   -1.4917   -0.6706 H       1  UNL11       0.1760
     26 H           1.6089    1.6324   -2.3212 H       1  UNL11       0.0652
     27 H           2.7398    2.1816   -4.3744 H       1  UNL11       0.0619
     28 H           3.6312    0.3326   -5.7752 H       1  UNL11       0.0633
     29 H           3.3085   -2.0147   -4.9801 H       1  UNL11       0.0830
     30 H          -3.5117    0.5742    0.2903 H       1  UNL11       0.0639
     31 H          -4.6422    2.7066    0.5479 H       1  UNL11       0.0619
     32 H          -3.2807    4.8237    0.4346 H       1  UNL11       0.0633
     33 H          -0.8542    4.6634    0.0674 H       1  UNL11       0.0830
     34 H          -0.3087   -2.3481   -1.1070 H       1  UNL11       0.0624
     35 H          -0.8396   -4.4701   -0.1469 H       1  UNL11       0.0618
@<TRIPOS>BOND
     1     1     2   ar
     2     1    22    1
     3     2     3   ar
     4     2    23    1
     5     3     4   ar
     6     3    24    1
     7     4     5    1
     8     4    20   ar
     9     5     6    2
    10     5    14    1
    11     6     7    1
    12     7     8    1
    13     7    25    1
    14     8     9   ar
    15     9    10   ar
    16     9    26    1
    17    10    11   ar
    18    10    27    1
    19    11    12   ar
    20    11    28    1
    21    12    13   ar
    22    12    29    1
    23    13     8   ar
    24    14    15   ar
    25    15    16   ar
    26    15    30    1
    27    16    17   ar
    28    16    31    1
    29    17    18   ar
    30    17    32    1
    31    18    19   ar
    32    18    33    1
    33    19    14   ar
    34    20    21   ar
    35    20    34    1
    36    21     1   ar
    37    21    35    1
@<TRIPOS>MOLECULE
*****
 35 37 0 0 0
SMALL
GASTEIGER

@<TRIPOS>ATOM
      1 C          -2.2271   -3.6070    1.3419 C.ar    1  UNL11      -0.0617
      2 C          -0.8863   -3.3201    1.2288 C.ar    1  UNL11      -0.0611
      3 C          -0.3831   -2.1061    0.7774 C.ar    1  UNL11      -0.0524
      4 C          -1.2777   -1.1203    0.4163 C.ar    1  UNL11       0.0039
      5 C          -0.8623    0.1429   -0.1563 C.2     1  UNL11       0.1142
      6 N           0.1961    0.2462   -0.8599 N.2     1  UNL11      -0.1787
      7 N           1.1224   -0.6552   -1.2402 N.pl3   1  UNL11      -0.2204
      8 C           0.7571   -2.0183   -1.4205 C.ar    1  UNL11       0.1380
      9 C           1.7730   -2.8833   -1.7979 C.ar    1  UNL11      -0.0203
     10 C           1.5828   -4.2292   -2.0110 C.ar    1  UNL11      -0.0570
     11 C           0.3073   -4.7305   -1.8359 C.ar    1  UNL11      -0.0435
     12 C          -0.6686   -3.8408   -1.4623 C.ar    1  UNL11       0.0297
     13 N          -0.4542   -2.5289   -1.2607 N.ar    1  UNL11      -0.2389
     14 C          -1.5748    1.4101    0.0377 C.ar    1  UNL11       0.0912
     15 C          -1.5786    2.4075   -0.9122 C.ar    1  UNL11      -0.0341
     16 C          -2.2294    3.5895   -0.6794 C.ar    1  UNL11      -0.0583
     17 C          -2.8918    3.7897    0.5208 C.ar    1  UNL11      -0.0436
     18 C          -2.8638    2.7603    1.4508 C.ar    1  UNL11       0.0283
     19 N          -2.2156    1.6348    1.1688 N.ar    1  UNL11      -0.2534
     20 C          -2.6318   -1.3961    0.5254 C.ar    1  UNL11      -0.0524
     21 C          -3.1222   -2.6256    0.9835 C.ar    1  UNL11      -0.0611
     22 H          -2.5875   -4.5736    1.7012 H       1  UNL11       0.0618
     23 H          -0.1522   -4.0925    1.5104 H       1  UNL11       0.0618
     24 H           0.6968   -1.9880    0.7621 H       1  UNL11       0.0624
     25 H           2.1149   -0.3976   -1.3903 H       1  UNL11       0.1760
     26 H           2.7742   -2.5053   -1.9383 H       1  UNL11       0.0652
     27 H           2.4209   -4.8581   -2.3064 H       1  UNL11       0.0619
     28 H           0.1349   -5.7824   -1.9975 H       1  UNL11       0.0633
     29 H          -1.6913   -4.2176   -1.3172 H       1  UNL11       0.0830
     30 H          -1.0748    2.2705   -1.8395 H       1  UNL11       0.0639
     31 H          -2.2256    4.3690   -1.4358 H       1  UNL11       0.0619
     32 H          -3.4191    4.6962    0.7590 H       1  UNL11       0.0633
     33 H          -3.3807    2.8827    2.4198 H       1  UNL11       0.0830
     34 H          -3.4158   -0.7095    0.2539 H       1  UNL11       0.0624
     35 H          -4.1776   -2.8246    1.0617 H       1  UNL11       0.0618
@<TRIPOS>BOND
     1     1     2   ar
     2     1    22    1
     3     2     3   ar
     4     2    23    1
     5     3     4   ar
     6     3    24    1
     7     4     5    1
     8     4    20   ar
     9     5     6    2
    10     5    14    1
    11     6     7    1
    12     7     8    1
    13     7    25    1
    14     8     9   ar
    15     9    10   ar
    16     9    26    1
    17    10    11   ar
    18    10    27    1
    19    11    12   ar
    20    11    28    1
    21    12    13   ar
    22    12    29    1
    23    13     8   ar
    24    14    15   ar
    25    15    16   ar
    26    15    30    1
    27    16    17   ar
    28    16    31    1
    29    17    18   ar
    30    17    32    1
    31    18    19   ar
    32    18    33    1
    33    19    14   ar
    34    20    21   ar
    35    20    34    1
    36    21     1   ar
    37    21    35    1
@<TRIPOS>MOLECULE
*****
 35 37 0 0 0
SMALL
GASTEIGER

@<TRIPOS>ATOM
      1 C          -2.2271   -3.6070    1.3419 C.ar    1  UNL11      -0.0617
      2 C          -0.8863   -3.3201    1.2288 C.ar    1  UNL11      -0.0611
      3 C          -0.3831   -2.1061    0.7774 C.ar    1  UNL11      -0.0524
      4 C          -1.2777   -1.1203    0.4163 C.ar    1  UNL11       0.0039
      5 C          -0.8623    0.1429   -0.1563 C.2     1  UNL11       0.1142
      6 N           0.1961    0.2462   -0.8599 N.2     1  UNL11      -0.1787
      7 N           1.1224   -0.6552   -1.2402 N.pl3   1  UNL11      -0.2204
      8 C           1.4024   -1.7795   -0.4146 C.ar    1  UNL11       0.1380
      9 C           2.6962   -2.2754   -0.4678 C.ar    1  UNL11      -0.0203
     10 C           3.1252   -3.3552    0.2690 C.ar    1  UNL11      -0.0570
     11 C           2.2075   -3.9670    1.1011 C.ar    1  UNL11      -0.0435
     12 C           0.9385   -3.4450    1.1238 C.ar    1  UNL11       0.0297
     13 N           0.5463   -2.3874    0.3922 N.ar    1  UNL11      -0.2389
     14 C          -1.5748    1.4101    0.0377 C.ar    1  UNL11       0.0912
     15 C          -2.9357    1.4677    0.2423 C.ar    1  UNL11      -0.0341
     16 C          -3.5684    2.6733    0.3870 C.ar    1  UNL11      -0.0583
     17 C          -2.8384    3.8493    0.3280 C.ar    1  UNL11      -0.0436
     18 C          -1.4703    3.7476    0.1204 C.ar    1  UNL11       0.0283
     19 N          -0.9111    2.5492   -0.0130 N.ar    1  UNL11      -0.2534
     20 C          -2.6318   -1.3961    0.5254 C.ar    1  UNL11      -0.0524
     21 C          -3.1222   -2.6256    0.9835 C.ar    1  UNL11      -0.0611
     22 H          -2.5875   -4.5736    1.7012 H       1  UNL11       0.0618
     23 H          -0.1522   -4.0925    1.5104 H       1  UNL11       0.0618
     24 H           0.6968   -1.9880    0.7621 H       1  UNL11       0.0624
     25 H           1.6662   -0.5524   -2.1164 H       1  UNL11       0.1760
     26 H           3.4236   -1.8073   -1.1135 H       1  UNL11       0.0652
     27 H           4.1549   -3.6985    0.1843 H       1  UNL11       0.0619
     28 H           2.5215   -4.8151    1.6880 H       1  UNL11       0.0633
     29 H           0.1914   -3.9159    1.7788 H       1  UNL11       0.0830
     30 H          -3.5117    0.5742    0.2903 H       1  UNL11       0.0639
     31 H          -4.6422    2.7066    0.5479 H       1  UNL11       0.0619
     32 H          -3.2807    4.8237    0.4346 H       1  UNL11       0.0633
     33 H          -0.8542    4.6634    0.0674 H       1  UNL11       0.0830
     34 H          -3.4158   -0.7095    0.2539 H       1  UNL11       0.0624
     35 H          -4.1776   -2.8246    1.0617 H       1  UNL11       0.0618
@<TRIPOS>BOND
     1     1     2   ar
     2     1    22    1
     3     2     3   ar
     4     2    23    1
     5     3     4   ar
     6     3    24    1
     7     4     5    1
     8     4    20   ar
     9     5     6    2
    10     5    14    1
    11     6     7    1
    12     7     8    1
    13     7    25    1
    14     8     9   ar
    15     9    10   ar
    16     9    26    1
    17    10    11   ar
    18    10    27    1
    19    11    12   ar
    20    11    28    1
    21    12    13   ar
    22    12    29    1
    23    13     8   ar
    24    14    15   ar
    25    15    16   ar
    26    15    30    1
    27    16    17   ar
    28    16    31    1
    29    17    18   ar
    30    17    32    1
    31    18    19   ar
    32    18    33    1
    33    19    14   ar
    34    20    21   ar
    35    20    34    1
    36    21     1   ar
    37    21    35    1
@<TRIPOS>MOLECULE
*****
 35 37 0 0 0
SMALL
GASTEIGER

@<TRIPOS>ATOM
      1 C          -1.9419   -3.5324    1.7133 C.ar    1  UNL11      -0.0617
      2 C          -2.8924   -2.6393    1.2754 C.ar    1  UNL11      -0.0611
      3 C          -2.6014   -1.4424    0.6324 C.ar    1  UNL11      -0.0524
      4 C          -1.2777   -1.1203    0.4163 C.ar    1  UNL11       0.0039
      5 C          -0.8623    0.1429   -0.1563 C.2     1  UNL11       0.1142
      6 N           0.1961    0.2462   -0.8599 N.2     1  UNL11      -0.1787
      7 N           1.1224   -0.6552   -1.2402 N.pl3   1  UNL11      -0.2204
      8 C           0.7571   -2.0183   -1.4205 C.ar    1  UNL11       0.1380
      9 C           1.4747   -2.7275   -2.3717 C.ar    1  UNL11      -0.0203
     10 C           1.2441   -4.0521   -2.6634 C.ar    1  UNL11      -0.0570
     11 C           0.2419   -4.6961   -1.9636 C.ar    1  UNL11      -0.0435
     12 C          -0.4437   -3.9581   -1.0315 C.ar    1  UNL11       0.0297
     13 N          -0.1969   -2.6632   -0.7667 N.ar    1  UNL11      -0.2389
     14 C          -1.5748    1.4101    0.0377 C.ar    1  UNL11       0.0912
     15 C          -1.5786    2.4075   -0.9122 C.ar    1  UNL11      -0.0341
     16 C          -2.2294    3.5895   -0.6794 C.ar    1  UNL11      -0.0583
     17 C          -2.8918    3.7897    0.5208 C.ar    1  UNL11      -0.0436
     18 C          -2.8638    2.7603    1.4508 C.ar    1  UNL11       0.0283
     19 N          -2.2156    1.6348    1.1688 N.ar    1  UNL11      -0.2534
     20 C          -0.3096   -2.0115    0.8526 C.ar    1  UNL11      -0.0524
     21 C          -0.6206   -3.2148    1.4985 C.ar    1  UNL11      -0.0611
     22 H          -2.2072   -4.4655    2.2158 H       1  UNL11       0.0618
     23 H          -3.9569   -2.8743    1.4377 H       1  UNL11       0.0618
     24 H          -3.4404   -0.8347    0.3051 H       1  UNL11       0.0624
     25 H           2.1149   -0.3976   -1.3903 H       1  UNL11       0.1760
     26 H           2.2604   -2.2370   -2.9259 H       1  UNL11       0.0652
     27 H           1.8415   -4.5553   -3.4217 H       1  UNL11       0.0619
     28 H           0.0436   -5.7343   -2.1756 H       1  UNL11       0.0633
     29 H          -1.2457   -4.4501   -0.4625 H       1  UNL11       0.0830
     30 H          -1.0748    2.2705   -1.8395 H       1  UNL11       0.0639
     31 H          -2.2256    4.3690   -1.4358 H       1  UNL11       0.0619
     32 H          -3.4191    4.6962    0.7590 H       1  UNL11       0.0633
     33 H          -3.3807    2.8827    2.4198 H       1  UNL11       0.0830
     34 H           0.7510   -1.8530    0.7540 H       1  UNL11       0.0624
     35 H           0.1435   -3.8963    1.8323 H       1  UNL11       0.0618
@<TRIPOS>BOND
     1     1     2   ar
     2     1    22    1
     3     2     3   ar
     4     2    23    1
     5     3     4   ar
     6     3    24    1
     7     4     5    1
     8     4    20   ar
     9     5     6    2
    10     5    14    1
    11     6     7    1
    12     7     8    1
    13     7    25    1
    14     8     9   ar
    15     9    10   ar
    16     9    26    1
    17    10    11   ar
    18    10    27    1
    19    11    12   ar
    20    11    28    1
    21    12    13   ar
    22    12    29    1
    23    13     8   ar
    24    14    15   ar
    25    15    16   ar
    26    15    30    1
    27    16    17   ar
    28    16    31    1
    29    17    18   ar
    30    17    32    1
    31    18    19   ar
    32    18    33    1
    33    19    14   ar
    34    20    21   ar
    35    20    34    1
    36    21     1   ar
    37    21    35    1
@<TRIPOS>MOLECULE
*****
 35 37 0 0 0
SMALL
GASTEIGER

@<TRIPOS>ATOM
      1 C          -2.3080   -3.4946    1.5312 C.ar    1  UNL11      -0.0617
      2 C          -1.5152   -3.4859    0.4068 C.ar    1  UNL11      -0.0611
      3 C          -0.9900   -2.3356   -0.1691 C.ar    1  UNL11      -0.0524
      4 C          -1.2777   -1.1203    0.4163 C.ar    1  UNL11       0.0039
      5 C          -0.8623    0.1429   -0.1563 C.2     1  UNL11       0.1142
      6 N           0.1961    0.2462   -0.8599 N.2     1  UNL11      -0.1787
      7 N           1.1224   -0.6552   -1.2402 N.pl3   1  UNL11      -0.2204
      8 C           2.4695   -0.2473   -1.4472 C.ar    1  UNL11       0.1380
      9 C           2.6594    1.0611   -1.8650 C.ar    1  UNL11      -0.0203
     10 C           3.8986    1.6073   -2.1078 C.ar    1  UNL11      -0.0570
     11 C           5.0023    0.7975   -1.9209 C.ar    1  UNL11      -0.0435
     12 C           4.7703   -0.4902   -1.5070 C.ar    1  UNL11       0.0297
     13 N           3.5468   -0.9982   -1.2771 N.ar    1  UNL11      -0.2389
     14 C          -1.5748    1.4101    0.0377 C.ar    1  UNL11       0.0912
     15 C          -1.5786    2.4075   -0.9122 C.ar    1  UNL11      -0.0341
     16 C          -2.2294    3.5895   -0.6794 C.ar    1  UNL11      -0.0583
     17 C          -2.8918    3.7897    0.5208 C.ar    1  UNL11      -0.0436
     18 C          -2.8638    2.7603    1.4508 C.ar    1  UNL11       0.0283
     19 N          -2.2156    1.6348    1.1688 N.ar    1  UNL11      -0.2534
     20 C          -2.0755   -1.1147    1.5499 C.ar    1  UNL11      -0.0524
     21 C          -2.5962   -2.2842    2.1184 C.ar    1  UNL11      -0.0611
     22 H          -2.7041   -4.4192    1.9573 H       1  UNL11       0.0618
     23 H          -1.2725   -4.4448   -0.0794 H       1  UNL11       0.0618
     24 H          -0.3510   -2.4599   -1.0391 H       1  UNL11       0.0624
     25 H           0.8874   -1.6498   -1.4123 H       1  UNL11       0.1760
     26 H           1.8062    1.7050   -2.0151 H       1  UNL11       0.0652
     27 H           3.9837    2.6423   -2.4345 H       1  UNL11       0.0619
     28 H           5.9835    1.2043   -2.1051 H       1  UNL11       0.0633
     29 H           5.6339   -1.1529   -1.3518 H       1  UNL11       0.0830
     30 H          -1.0748    2.2705   -1.8395 H       1  UNL11       0.0639
     31 H          -2.2256    4.3690   -1.4358 H       1  UNL11       0.0619
     32 H          -3.4191    4.6962    0.7590 H       1  UNL11       0.0633
     33 H          -3.3807    2.8827    2.4198 H       1  UNL11       0.0830
     34 H          -2.3784   -0.2248    2.0756 H       1  UNL11       0.0624
     35 H          -3.2153   -2.2628    2.9991 H       1  UNL11       0.0618
@<TRIPOS>BOND
     1     1     2   ar
     2     1    22    1
     3     2     3   ar
     4     2    23    1
     5     3     4   ar
     6     3    24    1
     7     4     5    1
     8     4    20   ar
     9     5     6    2
    10     5    14    1
    11     6     7    1
    12     7     8    1
    13     7    25    1
    14     8     9   ar
    15     9    10   ar
    16     9    26    1
    17    10    11   ar
    18    10    27    1
    19    11    12   ar
    20    11    28    1
    21    12    13   ar
    22    12    29    1
    23    13     8   ar
    24    14    15   ar
    25    15    16   ar
    26    15    30    1
    27    16    17   ar
    28    16    31    1
    29    17    18   ar
    30    17    32    1
    31    18    19   ar
    32    18    33    1
    33    19    14   ar
    34    20    21   ar
    35    20    34    1
    36    21     1   ar
    37    21    35    1
@<TRIPOS>MOLECULE
*****
 35 37 0 0 0
SMALL
GASTEIGER

@<TRIPOS>ATOM
      1 C          -1.8592   -3.6473    1.5200 C.ar    1  UNL11      -0.0617
      2 C          -2.2499   -2.4700    2.1151 C.ar    1  UNL11      -0.0611
      3 C          -1.9814   -1.2080    1.5994 C.ar    1  UNL11      -0.0524
      4 C          -1.2777   -1.1203    0.4163 C.ar    1  UNL11       0.0039
      5 C          -0.8623    0.1429   -0.1563 C.2     1  UNL11       0.1142
      6 N           0.1961    0.2462   -0.8599 N.2     1  UNL11      -0.1787
      7 N           1.1224   -0.6552   -1.2402 N.pl3   1  UNL11      -0.2204
      8 C           2.4695   -0.2473   -1.4472 C.ar    1  UNL11       0.1380
      9 C           2.9125    0.8237   -0.6859 C.ar    1  UNL11      -0.0203
     10 C           4.1864    1.3368   -0.7679 C.ar    1  UNL11      -0.0570
     11 C           5.0588    0.7433   -1.6598 C.ar    1  UNL11      -0.0435
     12 C           4.5805   -0.3133   -2.3934 C.ar    1  UNL11       0.0297
     13 N           3.3291   -0.7945   -2.2928 N.ar    1  UNL11      -0.2389
     14 C          -1.5748    1.4101    0.0377 C.ar    1  UNL11       0.0912
     15 C          -0.9289    2.6266    0.0425 C.ar    1  UNL11      -0.0341
     16 C          -1.6259    3.7851    0.2592 C.ar    1  UNL11      -0.0583
     17 C          -2.9934    3.7394    0.4763 C.ar    1  UNL11      -0.0436
     18 C          -3.6057    2.4943    0.4636 C.ar    1  UNL11       0.0283
     19 N          -2.8773    1.4038    0.2478 N.ar    1  UNL11      -0.2534
     20 C          -0.8780   -2.2990   -0.1940 C.ar    1  UNL11      -0.0524
     21 C          -1.1580   -3.5636    0.3392 C.ar    1  UNL11      -0.0611
     22 H          -2.0881   -4.6232    1.9542 H       1  UNL11       0.0618
     23 H          -2.8125   -2.5144    3.0618 H       1  UNL11       0.0618
     24 H          -2.3700   -0.3526    2.1451 H       1  UNL11       0.0624
     25 H           0.8874   -1.6498   -1.4123 H       1  UNL11       0.1760
     26 H           2.2416    1.2970    0.0149 H       1  UNL11       0.0652
     27 H           4.4756    2.1803   -0.1433 H       1  UNL11       0.0619
     28 H           6.0623    1.1288   -1.7409 H       1  UNL11       0.0633
     29 H           5.2573   -0.8011   -3.1097 H       1  UNL11       0.0830
     30 H           0.1210    2.6800   -0.1225 H       1  UNL11       0.0639
     31 H          -1.1060    4.7388    0.2608 H       1  UNL11       0.0619
     32 H          -3.5920    4.6154    0.6519 H       1  UNL11       0.0633
     33 H          -4.6950    2.4173    0.6329 H       1  UNL11       0.0830
     34 H          -0.3087   -2.3481   -1.1070 H       1  UNL11       0.0624
     35 H          -0.8396   -4.4701   -0.1469 H       1  UNL11       0.0618
@<TRIPOS>BOND
     1     1     2   ar
     2     1    22    1
     3     2     3   ar
     4     2    23    1
     5     3     4   ar
     6     3    24    1
     7     4     5    1
     8     4    20   ar
     9     5     6    2
    10     5    14    1
    11     6     7    1
    12     7     8    1
    13     7    25    1
    14     8     9   ar
    15     9    10   ar
    16     9    26    1
    17    10    11   ar
    18    10    27    1
    19    11    12   ar
    20    11    28    1
    21    12    13   ar
    22    12    29    1
    23    13     8   ar
    24    14    15   ar
    25    15    16   ar
    26    15    30    1
    27    16    17   ar
    28    16    31    1
    29    17    18   ar
    30    17    32    1
    31    18    19   ar
    32    18    33    1
    33    19    14   ar
    34    20    21   ar
    35    20    34    1
    36    21     1   ar
    37    21    35    1
