@<TRIPOS>MOLECULE
*****
 43 45 0 0 0
SMALL
GASTEIGER

@<TRIPOS>ATOM
      1 C           4.4358   -0.9064    3.5973 C.3     1  UNL11      -0.0586
      2 C           3.0182   -0.3553    3.4076 C.3     1  UNL11      -0.0215
      3 C           1.9941   -1.4395    3.6856 C.3     1  UNL11      -0.0586
      4 C           2.8751    0.2260    2.0485 C.ar    1  UNL11      -0.0430
      5 C           3.9322    0.2201    1.1573 C.ar    1  UNL11      -0.0582
      6 C           3.8013    0.7255   -0.1195 C.ar    1  UNL11      -0.0597
      7 C           2.6249    1.2569   -0.5694 C.ar    1  UNL11      -0.0405
      8 C           1.5408    1.2734    0.3164 C.ar    1  UNL11       0.0337
      9 N           0.3019    1.7695   -0.1615 N.am    1  UNL11      -0.2852
     10 C          -0.6804    0.9277   -0.7694 C.2     1  UNL11       0.2232
     11 O          -1.7214    1.5019   -1.1573 O.2     1  UNL11      -0.2751
     12 C          -0.4453   -0.5347   -0.9139 C.3     1  UNL11       0.0728
     13 C          -0.2643   -1.1723    0.3981 C.2     1  UNL11       0.1237
     14 N          -0.6451   -2.4636    0.5745 N.2     1  UNL11      -0.0071
     15 N          -0.5680   -3.1273    1.7006 N.am    1  UNL11      -0.0356
     16 C          -0.0706   -2.4954    2.7950 C.2     1  UNL11       0.4383
     17 O           0.0364   -3.0567    3.9106 O.2     1  UNL11      -0.2116
     18 C           0.3315   -1.1851    2.6681 C.ar    1  UNL11       0.1004
     19 C           0.8661   -0.5128    3.7786 C.ar    1  UNL11      -0.0441
     20 C           1.2874    0.7847    3.6676 C.ar    1  UNL11      -0.0608
     21 C           1.2045    1.4710    2.4803 C.ar    1  UNL11      -0.0611
     22 C           0.6791    0.8259    1.3724 C.ar    1  UNL11      -0.0518
     23 C           0.2451   -0.4983    1.4773 C.ar    1  UNL11       0.0194
     24 C           1.6907    0.7663    1.5846 C.ar    1  UNL11      -0.0370
     25 H           5.0997   -0.2530    2.9816 H       1  UNL11       0.0235
     26 H           4.4749   -1.9263    3.1590 H       1  UNL11       0.0235
     27 H           4.7608   -0.8318    4.6349 H       1  UNL11       0.0235
     28 H           2.8699    0.4020    4.2058 H       1  UNL11       0.0343
     29 H           1.8090   -1.5232    4.7959 H       1  UNL11       0.0235
     30 H           1.0346   -1.1688    3.2106 H       1  UNL11       0.0235
     31 H           2.3530   -2.4427    3.3425 H       1  UNL11       0.0235
     32 H           4.8617   -0.2038    1.5085 H       1  UNL11       0.0620
     33 H           4.6667    0.6855   -0.7523 H       1  UNL11       0.0618
     34 H           2.4969    1.6676   -1.5818 H       1  UNL11       0.0636
     35 H           0.0413    2.7869   -0.0909 H       1  UNL11       0.1548
     36 H           0.4513   -0.6641   -1.5435 H       1  UNL11       0.0425
     37 H          -1.3555   -0.9597   -1.4406 H       1  UNL11       0.0425
     38 H          -0.8690   -4.1245    1.8013 H       1  UNL11       0.4829
     39 H           0.9327   -1.0562    4.7285 H       1  UNL11       0.0627
     40 H           1.6991    1.3194    4.5122 H       1  UNL11       0.0618
     41 H           1.5394    2.5138    2.3744 H       1  UNL11       0.0618
     42 H           0.6242    1.3460    0.4252 H       1  UNL11       0.0624
     43 H           0.8515    0.7695    2.2828 H       1  UNL11       0.0639
@<TRIPOS>BOND
     1     1     2    1
     2     1    25    1
     3     1    26    1
     4     1    27    1
     5     2     3    1
     6     2     4    1
     7     2    28    1
     8     3    29    1
     9     3    30    1
    10     3    31    1
    11     4     5   ar
    12     5     6   ar
    13     5    32    1
    14     6     7   ar
    15     6    33    1
    16     7     8   ar
    17     7    34    1
    18     8     9    1
    19     8    24   ar
    20     9    10   am
    21     9    35    1
    22    10    11    2
    23    10    12    1
    24    12    13    1
    25    12    36    1
    26    12    37    1
    27    13    14    2
    28    14    15    1
    29    15    16   am
    30    15    38    1
    31    16    17    2
    32    16    18    1
    33    18    19   ar
    34    19    20   ar
    35    19    39    1
    36    20    21   ar
    37    20    40    1
    38    21    22   ar
    39    21    41    1
    40    22    23   ar
    41    22    42    1
    42    23    13    1
    43    23    18   ar
    44    24     4   ar
    45    24    43    1
@<TRIPOS>MOLECULE
*****
 43 45 0 0 0
SMALL
GASTEIGER

@<TRIPOS>ATOM
      1 C           4.0645    3.6492    2.7096 C.3     1  UNL11      -0.0586
      2 C           4.2285    2.1320    2.8521 C.3     1  UNL11      -0.0215
      3 C           5.6997    1.7616    2.8395 C.3     1  UNL11      -0.0586
      4 C           3.4581    1.4342    1.7915 C.ar    1  UNL11      -0.0430
      5 C           3.8783    0.2154    1.2920 C.ar    1  UNL11      -0.0582
      6 C           3.1529   -0.4589    0.3317 C.ar    1  UNL11      -0.0597
      7 C           1.9854    0.0401   -0.1749 C.ar    1  UNL11      -0.0405
      8 C           1.5408    1.2734    0.3164 C.ar    1  UNL11       0.0337
      9 N           0.3019    1.7695   -0.1615 N.am    1  UNL11      -0.2852
     10 C          -0.6804    0.9277   -0.7694 C.2     1  UNL11       0.2232
     11 O          -1.7214    1.5019   -1.1573 O.2     1  UNL11      -0.2751
     12 C          -0.4453   -0.5347   -0.9139 C.3     1  UNL11       0.0728
     13 C          -1.5810   -1.1884   -1.5800 C.2     1  UNL11       0.1237
     14 N          -2.2643   -2.1679   -0.9338 N.2     1  UNL11      -0.0071
     15 N          -3.2665   -2.8463   -1.4335 N.am    1  UNL11      -0.0356
     16 C          -3.6746   -2.5667   -2.6983 C.2     1  UNL11       0.4383
     17 O          -4.6241   -3.1690   -3.2520 O.2     1  UNL11      -0.2116
     18 C          -3.0153   -1.5801   -3.3959 C.ar    1  UNL11       0.1004
     19 C          -3.4274   -1.2579   -4.6987 C.ar    1  UNL11      -0.0441
     20 C          -2.7953   -0.2681   -5.4017 C.ar    1  UNL11      -0.0608
     21 C          -1.7463    0.4396   -4.8666 C.ar    1  UNL11      -0.0611
     22 C          -1.3234    0.1365   -3.5825 C.ar    1  UNL11      -0.0518
     23 C          -1.9621   -0.8737   -2.8582 C.ar    1  UNL11       0.0194
     24 C           2.2775    1.9306    1.2721 C.ar    1  UNL11      -0.0370
     25 H           3.0400    3.8053    2.2935 H       1  UNL11       0.0235
     26 H           4.7898    4.0084    1.9489 H       1  UNL11       0.0235
     27 H           4.1140    4.1517    3.6754 H       1  UNL11       0.0235
     28 H           3.8686    1.8748    3.8704 H       1  UNL11       0.0343
     29 H           6.1444    1.9026    3.8672 H       1  UNL11       0.0235
     30 H           5.8075    0.6944    2.5767 H       1  UNL11       0.0235
     31 H           6.2831    2.4162    2.1437 H       1  UNL11       0.0235
     32 H           4.7981   -0.1838    1.6942 H       1  UNL11       0.0620
     33 H           3.5440   -1.3991   -0.0058 H       1  UNL11       0.0618
     34 H           1.3910   -0.4778   -0.9420 H       1  UNL11       0.0636
     35 H           0.0413    2.7869   -0.0909 H       1  UNL11       0.1548
     36 H          -0.2906   -0.9456    0.0981 H       1  UNL11       0.0425
     37 H           0.4992   -0.6527   -1.5307 H       1  UNL11       0.0425
     38 H          -3.7732   -3.5946   -0.9060 H       1  UNL11       0.4829
     39 H          -4.2632   -1.8212   -5.1302 H       1  UNL11       0.0627
     40 H          -3.0969   -0.0080   -6.4068 H       1  UNL11       0.0618
     41 H          -1.2282    1.2384   -5.4182 H       1  UNL11       0.0618
     42 H          -0.5110    0.6970   -3.1394 H       1  UNL11       0.0624
     43 H           1.9388    2.8906    1.6661 H       1  UNL11       0.0639
@<TRIPOS>BOND
     1     1     2    1
     2     1    25    1
     3     1    26    1
     4     1    27    1
     5     2     3    1
     6     2     4    1
     7     2    28    1
     8     3    29    1
     9     3    30    1
    10     3    31    1
    11     4     5   ar
    12     5     6   ar
    13     5    32    1
    14     6     7   ar
    15     6    33    1
    16     7     8   ar
    17     7    34    1
    18     8     9    1
    19     8    24   ar
    20     9    10   am
    21     9    35    1
    22    10    11    2
    23    10    12    1
    24    12    13    1
    25    12    36    1
    26    12    37    1
    27    13    14    2
    28    14    15    1
    29    15    16   am
    30    15    38    1
    31    16    17    2
    32    16    18    1
    33    18    19   ar
    34    19    20   ar
    35    19    39    1
    36    20    21   ar
    37    20    40    1
    38    21    22   ar
    39    21    41    1
    40    22    23   ar
    41    22    42    1
    42    23    13    1
    43    23    18   ar
    44    24     4   ar
    45    24    43    1
@<TRIPOS>MOLECULE
*****
 43 45 0 0 0
SMALL
GASTEIGER

@<TRIPOS>ATOM
      1 C           2.0130   -1.4961    3.6002 C.3     1  UNL11      -0.0586
      2 C           3.0182   -0.3553    3.4076 C.3     1  UNL11      -0.0215
      3 C           2.8491    0.6812    4.5026 C.3     1  UNL11      -0.0586
      4 C           2.8751    0.2260    2.0485 C.ar    1  UNL11      -0.0430
      5 C           3.9322    0.2201    1.1573 C.ar    1  UNL11      -0.0582
      6 C           3.8013    0.7255   -0.1195 C.ar    1  UNL11      -0.0597
      7 C           2.6249    1.2569   -0.5694 C.ar    1  UNL11      -0.0405
      8 C           1.5408    1.2734    0.3164 C.ar    1  UNL11       0.0337
      9 N           0.3019    1.7695   -0.1615 N.am    1  UNL11      -0.2852
     10 C          -0.6804    0.9277   -0.7694 C.2     1  UNL11       0.2232
     11 O          -1.7214    1.5019   -1.1573 O.2     1  UNL11      -0.2751
     12 C          -0.4453   -0.5347   -0.9139 C.3     1  UNL11       0.0728
     13 C           0.4188   -1.0392    0.1628 C.2     1  UNL11       0.1237
     14 N          -0.1399   -1.4947    1.3135 N.2     1  UNL11      -0.0071
     15 N           0.5232   -1.9336    2.3538 N.am    1  UNL11      -0.0356
     16 C           1.8802   -1.9442    2.3026 C.2     1  UNL11       0.4383
     17 O           2.5904   -2.3468    3.2536 O.2     1  UNL11      -0.2116
     18 C           2.4958   -1.4940    1.1567 C.ar    1  UNL11       0.1004
     19 C           3.8969   -1.5104    1.0694 C.ar    1  UNL11      -0.0441
     20 C           4.5263   -1.0829   -0.0683 C.ar    1  UNL11      -0.0608
     21 C           3.8207   -0.6269   -1.1553 C.ar    1  UNL11      -0.0611
     22 C           2.4370   -0.6016   -1.0892 C.ar    1  UNL11      -0.0518
     23 C           1.7861   -1.0348    0.0691 C.ar    1  UNL11       0.0194
     24 C           1.6907    0.7663    1.5846 C.ar    1  UNL11      -0.0370
     25 H           1.8810   -1.9570    2.5917 H       1  UNL11       0.0235
     26 H           1.0368   -1.0548    3.8937 H       1  UNL11       0.0235
     27 H           2.3989   -2.2632    4.2714 H       1  UNL11       0.0235
     28 H           4.0238   -0.7961    3.5718 H       1  UNL11       0.0343
     29 H           3.4007    0.3570    5.4325 H       1  UNL11       0.0235
     30 H           3.2908    1.6384    4.1736 H       1  UNL11       0.0235
     31 H           1.7747    0.8032    4.7916 H       1  UNL11       0.0235
     32 H           4.8617   -0.2038    1.5085 H       1  UNL11       0.0620
     33 H           4.6667    0.6855   -0.7523 H       1  UNL11       0.0618
     34 H           2.4969    1.6676   -1.5818 H       1  UNL11       0.0636
     35 H           0.0413    2.7869   -0.0909 H       1  UNL11       0.1548
     36 H           0.0175   -0.6984   -1.9018 H       1  UNL11       0.0425
     37 H          -1.4634   -1.0331   -0.8735 H       1  UNL11       0.0425
     38 H           0.0599   -2.2803    3.2256 H       1  UNL11       0.4829
     39 H           4.4641   -1.8722    1.9350 H       1  UNL11       0.0627
     40 H           5.6042   -1.0857   -0.1528 H       1  UNL11       0.0618
     41 H           4.3115   -0.2805   -2.0772 H       1  UNL11       0.0618
     42 H           1.8656   -0.2631   -1.9434 H       1  UNL11       0.0624
     43 H           0.8515    0.7695    2.2828 H       1  UNL11       0.0639
@<TRIPOS>BOND
     1     1     2    1
     2     1    25    1
     3     1    26    1
     4     1    27    1
     5     2     3    1
     6     2     4    1
     7     2    28    1
     8     3    29    1
     9     3    30    1
    10     3    31    1
    11     4     5   ar
    12     5     6   ar
    13     5    32    1
    14     6     7   ar
    15     6    33    1
    16     7     8   ar
    17     7    34    1
    18     8     9    1
    19     8    24   ar
    20     9    10   am
    21     9    35    1
    22    10    11    2
    23    10    12    1
    24    12    13    1
    25    12    36    1
    26    12    37    1
    27    13    14    2
    28    14    15    1
    29    15    16   am
    30    15    38    1
    31    16    17    2
    32    16    18    1
    33    18    19   ar
    34    19    20   ar
    35    19    39    1
    36    20    21   ar
    37    20    40    1
    38    21    22   ar
    39    21    41    1
    40    22    23   ar
    41    22    42    1
    42    23    13    1
    43    23    18   ar
    44    24     4   ar
    45    24    43    1
@<TRIPOS>MOLECULE
*****
 43 45 0 0 0
SMALL
GASTEIGER

@<TRIPOS>ATOM
      1 C           4.1258   -2.2338    2.4073 C.3     1  UNL11      -0.0586
      2 C           2.8935   -1.3651    2.6827 C.3     1  UNL11      -0.0215
      3 C           1.6414   -2.2218    2.6929 C.3     1  UNL11      -0.0586
      4 C           2.8174   -0.2602    1.6934 C.ar    1  UNL11      -0.0430
      5 C           3.9629    0.2677    1.1269 C.ar    1  UNL11      -0.0582
      6 C           3.9034    1.2701    0.1812 C.ar    1  UNL11      -0.0597
      7 C           2.7139    1.7928   -0.2440 C.ar    1  UNL11      -0.0405
      8 C           1.5408    1.2734    0.3164 C.ar    1  UNL11       0.0337
      9 N           0.3019    1.7695   -0.1615 N.am    1  UNL11      -0.2852
     10 C          -0.6804    0.9277   -0.7694 C.2     1  UNL11       0.2232
     11 O          -1.7214    1.5019   -1.1573 O.2     1  UNL11      -0.2751
     12 C          -0.4453   -0.5347   -0.9139 C.3     1  UNL11       0.0728
     13 C          -0.2643   -1.1723    0.3981 C.2     1  UNL11       0.1237
     14 N          -0.3255   -0.4172    1.5249 N.2     1  UNL11      -0.0071
     15 N          -0.1457   -0.8617    2.7434 N.am    1  UNL11      -0.0356
     16 C           0.1254   -2.1805    2.9210 C.2     1  UNL11       0.4383
     17 O           0.3117   -2.6871    4.0522 O.2     1  UNL11      -0.2116
     18 C           0.1964   -2.9898    1.8098 C.ar    1  UNL11       0.1004
     19 C           0.4575   -4.3604    1.9651 C.ar    1  UNL11      -0.0441
     20 C           0.5148   -5.1840    0.8734 C.ar    1  UNL11      -0.0608
     21 C           0.3218   -4.7076   -0.4006 C.ar    1  UNL11      -0.0611
     22 C           0.0639   -3.3577   -0.5758 C.ar    1  UNL11      -0.0518
     23 C           0.0051   -2.5092    0.5331 C.ar    1  UNL11       0.0194
     24 C           1.6204    0.2757    1.2578 C.ar    1  UNL11      -0.0370
     25 H           4.8953   -1.5430    1.9860 H       1  UNL11       0.0235
     26 H           3.8661   -2.9654    1.6129 H       1  UNL11       0.0235
     27 H           4.5278   -2.6640    3.3244 H       1  UNL11       0.0235
     28 H           3.0031   -0.9909    3.7222 H       1  UNL11       0.0343
     29 H           1.5157   -2.7135    3.7011 H       1  UNL11       0.0235
     30 H           0.7572   -1.5819    2.5252 H       1  UNL11       0.0235
     31 H           1.7003   -3.0460    1.9379 H       1  UNL11       0.0235
     32 H           4.9042   -0.1470    1.4573 H       1  UNL11       0.0620
     33 H           4.8354    1.6277   -0.2116 H       1  UNL11       0.0618
     34 H           2.6412    2.5934   -0.9948 H       1  UNL11       0.0636
     35 H           0.0413    2.7869   -0.0909 H       1  UNL11       0.1548
     36 H           0.4513   -0.6641   -1.5435 H       1  UNL11       0.0425
     37 H          -1.3555   -0.9597   -1.4406 H       1  UNL11       0.0425
     38 H          -0.2023   -0.2513    3.5915 H       1  UNL11       0.4829
     39 H           0.6136   -4.7446    2.9800 H       1  UNL11       0.0627
     40 H           0.7173   -6.2413    0.9733 H       1  UNL11       0.0618
     41 H           0.3639   -5.3565   -1.2883 H       1  UNL11       0.0618
     42 H          -0.1092   -2.9697   -1.5709 H       1  UNL11       0.0624
     43 H           0.7125   -0.1404    1.6986 H       1  UNL11       0.0639
@<TRIPOS>BOND
     1     1     2    1
     2     1    25    1
     3     1    26    1
     4     1    27    1
     5     2     3    1
     6     2     4    1
     7     2    28    1
     8     3    29    1
     9     3    30    1
    10     3    31    1
    11     4     5   ar
    12     5     6   ar
    13     5    32    1
    14     6     7   ar
    15     6    33    1
    16     7     8   ar
    17     7    34    1
    18     8     9    1
    19     8    24   ar
    20     9    10   am
    21     9    35    1
    22    10    11    2
    23    10    12    1
    24    12    13    1
    25    12    36    1
    26    12    37    1
    27    13    14    2
    28    14    15    1
    29    15    16   am
    30    15    38    1
    31    16    17    2
    32    16    18    1
    33    18    19   ar
    34    19    20   ar
    35    19    39    1
    36    20    21   ar
    37    20    40    1
    38    21    22   ar
    39    21    41    1
    40    22    23   ar
    41    22    42    1
    42    23    13    1
    43    23    18   ar
    44    24     4   ar
    45    24    43    1
@<TRIPOS>MOLECULE
*****
 43 45 0 0 0
SMALL
GASTEIGER

@<TRIPOS>ATOM
      1 C           6.1338   -0.0013   -0.4804 C.3     1  UNL11      -0.0586
      2 C           4.7239   -0.3277   -0.9856 C.3     1  UNL11      -0.0215
      3 C           4.5600    0.1426   -2.4186 C.3     1  UNL11      -0.0586
      4 C           3.7079    0.2595   -0.0755 C.ar    1  UNL11      -0.0430
      5 C           3.9726    0.4305    1.2707 C.ar    1  UNL11      -0.0582
      6 C           3.0502    1.0065    2.1194 C.ar    1  UNL11      -0.0597
      7 C           1.8306    1.4368    1.6763 C.ar    1  UNL11      -0.0405
      8 C           1.5408    1.2734    0.3164 C.ar    1  UNL11       0.0337
      9 N           0.3019    1.7695   -0.1615 N.am    1  UNL11      -0.2852
     10 C          -0.6804    0.9277   -0.7694 C.2     1  UNL11       0.2232
     11 O          -1.7214    1.5019   -1.1573 O.2     1  UNL11      -0.2751
     12 C          -0.4453   -0.5347   -0.9139 C.3     1  UNL11       0.0728
     13 C           0.2064   -0.8403   -2.1956 C.2     1  UNL11       0.1237
     14 N           0.4892   -2.1297   -2.5136 N.2     1  UNL11      -0.0071
     15 N           1.0971   -2.5234   -3.6044 N.am    1  UNL11      -0.0356
     16 C           1.4862   -1.5856   -4.5064 C.2     1  UNL11       0.4383
     17 O           2.0741   -1.8764   -5.5745 O.2     1  UNL11      -0.2116
     18 C           1.2210   -0.2632   -4.2317 C.ar    1  UNL11       0.1004
     19 C           1.5961    0.7260   -5.1546 C.ar    1  UNL11      -0.0441
     20 C           1.3255    2.0446   -4.9070 C.ar    1  UNL11      -0.0608
     21 C           0.6845    2.4465   -3.7602 C.ar    1  UNL11      -0.0611
     22 C           0.3067    1.4861   -2.8359 C.ar    1  UNL11      -0.0518
     23 C           0.5805    0.1376   -3.0799 C.ar    1  UNL11       0.0194
     24 C           2.4720    0.6966   -0.5131 C.ar    1  UNL11      -0.0370
     25 H           6.0535    0.0453    0.6324 H       1  UNL11       0.0235
     26 H           6.4050    1.0153   -0.8364 H       1  UNL11       0.0235
     27 H           6.8437   -0.7888   -0.7326 H       1  UNL11       0.0235
     28 H           4.6582   -1.4351   -1.0294 H       1  UNL11       0.0343
     29 H           4.9880   -0.6224   -3.1297 H       1  UNL11       0.0235
     30 H           3.4852    0.2445   -2.6511 H       1  UNL11       0.0235
     31 H           5.1120    1.0986   -2.6039 H       1  UNL11       0.0235
     32 H           4.9377    0.0960    1.6227 H       1  UNL11       0.0620
     33 H           3.3291    1.1048    3.1506 H       1  UNL11       0.0618
     34 H           1.0782    1.8968    2.3338 H       1  UNL11       0.0636
     35 H           0.0413    2.7869   -0.0909 H       1  UNL11       0.1548
     36 H          -1.4255   -1.0353   -0.8395 H       1  UNL11       0.0425
     37 H           0.2170   -0.8447   -0.0470 H       1  UNL11       0.0425
     38 H           1.2977   -3.5276   -3.8195 H       1  UNL11       0.4829
     39 H           2.1092    0.4099   -6.0705 H       1  UNL11       0.0627
     40 H           1.6091    2.8203   -5.6046 H       1  UNL11       0.0618
     41 H           0.4591    3.5021   -3.5467 H       1  UNL11       0.0618
     42 H          -0.2157    1.7839   -1.9364 H       1  UNL11       0.0624
     43 H           2.2593    0.5679   -1.5761 H       1  UNL11       0.0639
@<TRIPOS>BOND
     1     1     2    1
     2     1    25    1
     3     1    26    1
     4     1    27    1
     5     2     3    1
     6     2     4    1
     7     2    28    1
     8     3    29    1
     9     3    30    1
    10     3    31    1
    11     4     5   ar
    12     5     6   ar
    13     5    32    1
    14     6     7   ar
    15     6    33    1
    16     7     8   ar
    17     7    34    1
    18     8     9    1
    19     8    24   ar
    20     9    10   am
    21     9    35    1
    22    10    11    2
    23    10    12    1
    24    12    13    1
    25    12    36    1
    26    12    37    1
    27    13    14    2
    28    14    15    1
    29    15    16   am
    30    15    38    1
    31    16    17    2
    32    16    18    1
    33    18    19   ar
    34    19    20   ar
    35    19    39    1
    36    20    21   ar
    37    20    40    1
    38    21    22   ar
    39    21    41    1
    40    22    23   ar
    41    22    42    1
    42    23    13    1
    43    23    18   ar
    44    24     4   ar
    45    24    43    1
@<TRIPOS>MOLECULE
*****
 43 45 0 0 0
SMALL
GASTEIGER

@<TRIPOS>ATOM
      1 C           5.4580    1.6455   -1.5684 C.3     1  UNL11      -0.0586
      2 C           5.2624    1.8994   -0.0696 C.3     1  UNL11      -0.0215
      3 C           6.4371    1.3428    0.7127 C.3     1  UNL11      -0.0586
      4 C           3.9637    1.3348    0.3777 C.ar    1  UNL11      -0.0430
      5 C           3.9112    0.3584    1.3552 C.ar    1  UNL11      -0.0582
      6 C           2.7093   -0.1488    1.8037 C.ar    1  UNL11      -0.0597
      7 C           1.5117    0.2850    1.3075 C.ar    1  UNL11      -0.0405
      8 C           1.5408    1.2734    0.3164 C.ar    1  UNL11       0.0337
      9 N           0.3019    1.7695   -0.1615 N.am    1  UNL11      -0.2852
     10 C          -0.6804    0.9277   -0.7694 C.2     1  UNL11       0.2232
     11 O          -0.3789   -0.2829   -0.8551 O.2     1  UNL11      -0.2751
     12 C          -1.9682    1.4910   -1.2582 C.3     1  UNL11       0.0728
     13 C          -2.9931    1.4559   -0.2051 C.2     1  UNL11       0.1237
     14 N          -3.7987    0.3690   -0.0892 N.2     1  UNL11      -0.0071
     15 N          -4.7674    0.2354    0.7817 N.am    1  UNL11      -0.0356
     16 C          -5.0058    1.2521    1.6499 C.2     1  UNL11       0.4383
     17 O          -5.9131    1.2063    2.5134 O.2     1  UNL11      -0.2116
     18 C          -4.2151    2.3763    1.5748 C.ar    1  UNL11       0.1004
     19 C          -4.4275    3.4353    2.4716 C.ar    1  UNL11      -0.0441
     20 C          -3.6404    4.5540    2.4235 C.ar    1  UNL11      -0.0608
     21 C          -2.6247    4.6825    1.5074 C.ar    1  UNL11      -0.0611
     22 C          -2.3990    3.6491    0.6126 C.ar    1  UNL11      -0.0518
     23 C          -3.1989    2.5039    0.6536 C.ar    1  UNL11       0.0194
     24 C           2.7477    1.7656   -0.1182 C.ar    1  UNL11      -0.0370
     25 H           4.4343    1.6605   -2.0142 H       1  UNL11       0.0235
     26 H           5.8615    0.6188   -1.6984 H       1  UNL11       0.0235
     27 H           6.0397    2.4384   -2.0381 H       1  UNL11       0.0235
     28 H           5.3114    2.9999    0.0682 H       1  UNL11       0.0343
     29 H           7.2931    2.0783    0.7035 H       1  UNL11       0.0235
     30 H           6.1400    1.1952    1.7661 H       1  UNL11       0.0235
     31 H           6.8222    0.3949    0.2586 H       1  UNL11       0.0235
     32 H           4.8560    0.0174    1.7529 H       1  UNL11       0.0620
     33 H           2.7508   -0.9043    2.5642 H       1  UNL11       0.0618
     34 H           0.5411   -0.1056    1.6475 H       1  UNL11       0.0636
     35 H           0.0413    2.7869   -0.0909 H       1  UNL11       0.1548
     36 H          -2.2788    0.8940   -2.1323 H       1  UNL11       0.0425
     37 H          -1.7570    2.5602   -1.5722 H       1  UNL11       0.0425
     38 H          -5.3688   -0.6185    0.8452 H       1  UNL11       0.4829
     39 H          -5.2380    3.3376    3.2034 H       1  UNL11       0.0627
     40 H          -3.7908    5.3804    3.1041 H       1  UNL11       0.0618
     41 H          -1.9827    5.5747    1.4562 H       1  UNL11       0.0618
     42 H          -1.5910    3.7264   -0.1029 H       1  UNL11       0.0624
     43 H           2.7832    2.5397   -0.8872 H       1  UNL11       0.0639
@<TRIPOS>BOND
     1     1     2    1
     2     1    25    1
     3     1    26    1
     4     1    27    1
     5     2     3    1
     6     2     4    1
     7     2    28    1
     8     3    29    1
     9     3    30    1
    10     3    31    1
    11     4     5   ar
    12     5     6   ar
    13     5    32    1
    14     6     7   ar
    15     6    33    1
    16     7     8   ar
    17     7    34    1
    18     8     9    1
    19     8    24   ar
    20     9    10   am
    21     9    35    1
    22    10    11    2
    23    10    12    1
    24    12    13    1
    25    12    36    1
    26    12    37    1
    27    13    14    2
    28    14    15    1
    29    15    16   am
    30    15    38    1
    31    16    17    2
    32    16    18    1
    33    18    19   ar
    34    19    20   ar
    35    19    39    1
    36    20    21   ar
    37    20    40    1
    38    21    22   ar
    39    21    41    1
    40    22    23   ar
    41    22    42    1
    42    23    13    1
    43    23    18   ar
    44    24     4   ar
    45    24    43    1
@<TRIPOS>MOLECULE
*****
 43 45 0 0 0
SMALL
GASTEIGER

@<TRIPOS>ATOM
      1 C           4.9524    1.1097    3.7353 C.3     1  UNL11      -0.0586
      2 C           4.2285    2.1320    2.8521 C.3     1  UNL11      -0.0215
      3 C           3.3561    3.0344    3.7043 C.3     1  UNL11      -0.0586
      4 C           3.4581    1.4342    1.7915 C.ar    1  UNL11      -0.0430
      5 C           3.8783    0.2154    1.2920 C.ar    1  UNL11      -0.0582
      6 C           3.1529   -0.4589    0.3317 C.ar    1  UNL11      -0.0597
      7 C           1.9854    0.0401   -0.1749 C.ar    1  UNL11      -0.0405
      8 C           1.5408    1.2734    0.3164 C.ar    1  UNL11       0.0337
      9 N           0.3019    1.7695   -0.1615 N.am    1  UNL11      -0.2852
     10 C          -0.6804    0.9277   -0.7694 C.2     1  UNL11       0.2232
     11 O          -1.7214    1.5019   -1.1573 O.2     1  UNL11      -0.2751
     12 C          -0.4453   -0.5347   -0.9139 C.3     1  UNL11       0.0728
     13 C           0.2064   -0.8403   -2.1956 C.2     1  UNL11       0.1237
     14 N          -0.0184   -0.0408   -3.2698 N.2     1  UNL11      -0.0071
     15 N           0.4740   -0.2290   -4.4684 N.am    1  UNL11      -0.0356
     16 C           1.2772   -1.3035   -4.6800 C.2     1  UNL11       0.4383
     17 O           1.7883   -1.5573   -5.7959 O.2     1  UNL11      -0.2116
     18 C           1.5378   -2.1446   -3.6220 C.ar    1  UNL11       0.1004
     19 C           2.3790   -3.2531   -3.8077 C.ar    1  UNL11      -0.0441
     20 C           2.6636   -4.0909   -2.7634 C.ar    1  UNL11      -0.0608
     21 C           2.1437   -3.8825   -1.5089 C.ar    1  UNL11      -0.0611
     22 C           1.3104   -2.7947   -1.3047 C.ar    1  UNL11      -0.0518
     23 C           1.0132   -1.9350   -2.3657 C.ar    1  UNL11       0.0194
     24 C           2.2775    1.9306    1.2721 C.ar    1  UNL11      -0.0370
     25 H           5.1970    0.2503    3.0656 H       1  UNL11       0.0235
     26 H           4.2365    0.7409    4.5004 H       1  UNL11       0.0235
     27 H           5.8889    1.5072    4.1259 H       1  UNL11       0.0235
     28 H           5.0157    2.7932    2.4331 H       1  UNL11       0.0343
     29 H           3.9763    3.8649    4.1510 H       1  UNL11       0.0235
     30 H           2.5835    3.5040    3.0701 H       1  UNL11       0.0235
     31 H           2.9000    2.4768    4.5610 H       1  UNL11       0.0235
     32 H           4.7981   -0.1838    1.6942 H       1  UNL11       0.0620
     33 H           3.5440   -1.3991   -0.0058 H       1  UNL11       0.0618
     34 H           1.3910   -0.4778   -0.9420 H       1  UNL11       0.0636
     35 H           0.0413    2.7869   -0.0909 H       1  UNL11       0.1548
     36 H          -1.4255   -1.0353   -0.8395 H       1  UNL11       0.0425
     37 H           0.2170   -0.8447   -0.0470 H       1  UNL11       0.0425
     38 H           0.2819    0.4095   -5.2749 H       1  UNL11       0.4829
     39 H           2.7949   -3.4240   -4.8076 H       1  UNL11       0.0627
     40 H           3.3070   -4.9508   -2.8881 H       1  UNL11       0.0618
     41 H           2.3633   -4.5461   -0.6592 H       1  UNL11       0.0618
     42 H           0.9077   -2.6056   -0.3184 H       1  UNL11       0.0624
     43 H           1.9388    2.8906    1.6661 H       1  UNL11       0.0639
@<TRIPOS>BOND
     1     1     2    1
     2     1    25    1
     3     1    26    1
     4     1    27    1
     5     2     3    1
     6     2     4    1
     7     2    28    1
     8     3    29    1
     9     3    30    1
    10     3    31    1
    11     4     5   ar
    12     5     6   ar
    13     5    32    1
    14     6     7   ar
    15     6    33    1
    16     7     8   ar
    17     7    34    1
    18     8     9    1
    19     8    24   ar
    20     9    10   am
    21     9    35    1
    22    10    11    2
    23    10    12    1
    24    12    13    1
    25    12    36    1
    26    12    37    1
    27    13    14    2
    28    14    15    1
    29    15    16   am
    30    15    38    1
    31    16    17    2
    32    16    18    1
    33    18    19   ar
    34    19    20   ar
    35    19    39    1
    36    20    21   ar
    37    20    40    1
    38    21    22   ar
    39    21    41    1
    40    22    23   ar
    41    22    42    1
    42    23    13    1
    43    23    18   ar
    44    24     4   ar
    45    24    43    1
@<TRIPOS>MOLECULE
*****
 43 45 0 0 0
SMALL
GASTEIGER

@<TRIPOS>ATOM
      1 C           5.4580    1.6455   -1.5684 C.3     1  UNL11      -0.0586
      2 C           5.2624    1.8994   -0.0696 C.3     1  UNL11      -0.0215
      3 C           6.4371    1.3428    0.7127 C.3     1  UNL11      -0.0586
      4 C           3.9637    1.3348    0.3777 C.ar    1  UNL11      -0.0430
      5 C           3.9112    0.3584    1.3552 C.ar    1  UNL11      -0.0582
      6 C           2.7093   -0.1488    1.8037 C.ar    1  UNL11      -0.0597
      7 C           1.5117    0.2850    1.3075 C.ar    1  UNL11      -0.0405
      8 C           1.5408    1.2734    0.3164 C.ar    1  UNL11       0.0337
      9 N           0.3019    1.7695   -0.1615 N.am    1  UNL11      -0.2852
     10 C          -0.6804    0.9277   -0.7694 C.2     1  UNL11       0.2232
     11 O          -1.7214    1.5019   -1.1573 O.2     1  UNL11      -0.2751
     12 C          -0.4453   -0.5347   -0.9139 C.3     1  UNL11       0.0728
     13 C           0.2064   -0.8403   -2.1956 C.2     1  UNL11       0.1237
     14 N           1.0372   -1.9104   -2.2872 N.2     1  UNL11      -0.0071
     15 N           1.7008   -2.2625   -3.3597 N.am    1  UNL11      -0.0356
     16 C           1.5641   -1.5132   -4.4840 C.2     1  UNL11       0.4383
     17 O           2.1636   -1.7795   -5.5521 O.2     1  UNL11      -0.2116
     18 C           0.7314   -0.4180   -4.4438 C.ar    1  UNL11       0.1004
     19 C           0.5574    0.3642   -5.5966 C.ar    1  UNL11      -0.0441
     20 C          -0.2798    1.4469   -5.5808 C.ar    1  UNL11      -0.0608
     21 C          -0.9736    1.8059   -4.4506 C.ar    1  UNL11      -0.0611
     22 C          -0.8152    1.0477   -3.3019 C.ar    1  UNL11      -0.0518
     23 C           0.0388   -0.0585   -3.3087 C.ar    1  UNL11       0.0194
     24 C           2.7477    1.7656   -0.1182 C.ar    1  UNL11      -0.0370
     25 H           4.4343    1.6605   -2.0142 H       1  UNL11       0.0235
     26 H           5.8615    0.6188   -1.6984 H       1  UNL11       0.0235
     27 H           6.0397    2.4384   -2.0381 H       1  UNL11       0.0235
     28 H           5.3114    2.9999    0.0682 H       1  UNL11       0.0343
     29 H           7.2931    2.0783    0.7035 H       1  UNL11       0.0235
     30 H           6.1400    1.1952    1.7661 H       1  UNL11       0.0235
     31 H           6.8222    0.3949    0.2586 H       1  UNL11       0.0235
     32 H           4.8560    0.0174    1.7529 H       1  UNL11       0.0620
     33 H           2.7508   -0.9043    2.5642 H       1  UNL11       0.0618
     34 H           0.5411   -0.1056    1.6475 H       1  UNL11       0.0636
     35 H           0.0413    2.7869   -0.0909 H       1  UNL11       0.1548
     36 H          -1.4255   -1.0353   -0.8395 H       1  UNL11       0.0425
     37 H           0.2170   -0.8447   -0.0470 H       1  UNL11       0.0425
     38 H           2.3322   -3.0962   -3.3964 H       1  UNL11       0.4829
     39 H           1.1103    0.0822   -6.5003 H       1  UNL11       0.0627
     40 H          -0.4242    2.0623   -6.4578 H       1  UNL11       0.0618
     41 H          -1.6508    2.6727   -4.4218 H       1  UNL11       0.0618
     42 H          -1.3687    1.3057   -2.4087 H       1  UNL11       0.0624
     43 H           2.7832    2.5397   -0.8872 H       1  UNL11       0.0639
@<TRIPOS>BOND
     1     1     2    1
     2     1    25    1
     3     1    26    1
     4     1    27    1
     5     2     3    1
     6     2     4    1
     7     2    28    1
     8     3    29    1
     9     3    30    1
    10     3    31    1
    11     4     5   ar
    12     5     6   ar
    13     5    32    1
    14     6     7   ar
    15     6    33    1
    16     7     8   ar
    17     7    34    1
    18     8     9    1
    19     8    24   ar
    20     9    10   am
    21     9    35    1
    22    10    11    2
    23    10    12    1
    24    12    13    1
    25    12    36    1
    26    12    37    1
    27    13    14    2
    28    14    15    1
    29    15    16   am
    30    15    38    1
    31    16    17    2
    32    16    18    1
    33    18    19   ar
    34    19    20   ar
    35    19    39    1
    36    20    21   ar
    37    20    40    1
    38    21    22   ar
    39    21    41    1
    40    22    23   ar
    41    22    42    1
    42    23    13    1
    43    23    18   ar
    44    24     4   ar
    45    24    43    1
@<TRIPOS>MOLECULE
*****
 43 45 0 0 0
SMALL
GASTEIGER

@<TRIPOS>ATOM
      1 C           2.1293   -2.5885    2.1646 C.3     1  UNL11      -0.0586
      2 C           2.8935   -1.3651    2.6827 C.3     1  UNL11      -0.0215
      3 C           2.3679   -0.9595    4.0469 C.3     1  UNL11      -0.0586
      4 C           2.8174   -0.2602    1.6934 C.ar    1  UNL11      -0.0430
      5 C           3.9629    0.2677    1.1269 C.ar    1  UNL11      -0.0582
      6 C           3.9034    1.2701    0.1812 C.ar    1  UNL11      -0.0597
      7 C           2.7139    1.7928   -0.2440 C.ar    1  UNL11      -0.0405
      8 C           1.5408    1.2734    0.3164 C.ar    1  UNL11       0.0337
      9 N           0.3019    1.7695   -0.1615 N.am    1  UNL11      -0.2852
     10 C          -0.6804    0.9277   -0.7694 C.2     1  UNL11       0.2232
     11 O          -1.7214    1.5019   -1.1573 O.2     1  UNL11      -0.2751
     12 C          -0.4453   -0.5347   -0.9139 C.3     1  UNL11       0.0728
     13 C          -1.1291   -1.0642   -2.1026 C.2     1  UNL11       0.1237
     14 N          -2.4771   -0.9426   -2.2107 N.2     1  UNL11      -0.0071
     15 N          -3.2007   -1.4035   -3.2000 N.am    1  UNL11      -0.0356
     16 C          -2.5761   -2.0597   -4.2117 C.2     1  UNL11       0.4383
     17 O          -3.1933   -2.5326   -5.1947 O.2     1  UNL11      -0.2116
     18 C          -1.2090   -2.2081   -4.1503 C.ar    1  UNL11       0.1004
     19 C          -0.5351   -2.8666   -5.1911 C.ar    1  UNL11      -0.0441
     20 C           0.8257   -3.0086   -5.1562 C.ar    1  UNL11      -0.0608
     21 C           1.5757   -2.5187   -4.1146 C.ar    1  UNL11      -0.0611
     22 C           0.9299   -1.8664   -3.0769 C.ar    1  UNL11      -0.0518
     23 C          -0.4595   -1.7182   -3.1036 C.ar    1  UNL11       0.0194
     24 C           1.6204    0.2757    1.2578 C.ar    1  UNL11      -0.0370
     25 H           2.2325   -2.5616    1.0531 H       1  UNL11       0.0235
     26 H           1.0526   -2.4530    2.4014 H       1  UNL11       0.0235
     27 H           2.5716   -3.5191    2.5198 H       1  UNL11       0.0235
     28 H           3.9371   -1.7014    2.8570 H       1  UNL11       0.0343
     29 H           2.8444   -1.5928    4.8506 H       1  UNL11       0.0235
     30 H           2.6423    0.0911    4.2487 H       1  UNL11       0.0235
     31 H           1.2626   -1.1171    4.1259 H       1  UNL11       0.0235
     32 H           4.9042   -0.1470    1.4573 H       1  UNL11       0.0620
     33 H           4.8354    1.6277   -0.2116 H       1  UNL11       0.0618
     34 H           2.6412    2.5934   -0.9948 H       1  UNL11       0.0636
     35 H           0.0413    2.7869   -0.0909 H       1  UNL11       0.1548
     36 H          -0.8157   -1.0207    0.0045 H       1  UNL11       0.0425
     37 H           0.6764   -0.6762   -1.0042 H       1  UNL11       0.0425
     38 H          -4.2396   -1.2900   -3.2530 H       1  UNL11       0.4829
     39 H          -1.1299   -3.2604   -6.0237 H       1  UNL11       0.0627
     40 H           1.3614   -3.5150   -5.9471 H       1  UNL11       0.0618
     41 H           2.6702   -2.6241   -4.0720 H       1  UNL11       0.0618
     42 H           1.5077   -1.4581   -2.2582 H       1  UNL11       0.0624
     43 H           0.7125   -0.1404    1.6986 H       1  UNL11       0.0639
@<TRIPOS>BOND
     1     1     2    1
     2     1    25    1
     3     1    26    1
     4     1    27    1
     5     2     3    1
     6     2     4    1
     7     2    28    1
     8     3    29    1
     9     3    30    1
    10     3    31    1
    11     4     5   ar
    12     5     6   ar
    13     5    32    1
    14     6     7   ar
    15     6    33    1
    16     7     8   ar
    17     7    34    1
    18     8     9    1
    19     8    24   ar
    20     9    10   am
    21     9    35    1
    22    10    11    2
    23    10    12    1
    24    12    13    1
    25    12    36    1
    26    12    37    1
    27    13    14    2
    28    14    15    1
    29    15    16   am
    30    15    38    1
    31    16    17    2
    32    16    18    1
    33    18    19   ar
    34    19    20   ar
    35    19    39    1
    36    20    21   ar
    37    20    40    1
    38    21    22   ar
    39    21    41    1
    40    22    23   ar
    41    22    42    1
    42    23    13    1
    43    23    18   ar
    44    24     4   ar
    45    24    43    1
@<TRIPOS>MOLECULE
*****
 43 45 0 0 0
SMALL
GASTEIGER

@<TRIPOS>ATOM
      1 C           2.8397    2.0683    4.2435 C.3     1  UNL11      -0.0586
      2 C           3.4206    0.8149    3.5794 C.3     1  UNL11      -0.0215
      3 C           4.9183    0.7466    3.8115 C.3     1  UNL11      -0.0586
      4 C           3.0678    0.7925    2.1370 C.ar    1  UNL11      -0.0430
      5 C           3.9028    0.1971    1.2096 C.ar    1  UNL11      -0.0582
      6 C           3.5697    0.1392   -0.1278 C.ar    1  UNL11      -0.0597
      7 C           2.4017    0.6653   -0.6051 C.ar    1  UNL11      -0.0405
      8 C           1.5408    1.2734    0.3164 C.ar    1  UNL11       0.0337
      9 N           0.3019    1.7695   -0.1615 N.am    1  UNL11      -0.2852
     10 C          -0.6804    0.9277   -0.7694 C.2     1  UNL11       0.2232
     11 O          -1.7214    1.5019   -1.1573 O.2     1  UNL11      -0.2751
     12 C          -0.4453   -0.5347   -0.9139 C.3     1  UNL11       0.0728
     13 C          -1.4738   -1.3073   -0.2027 C.2     1  UNL11       0.1237
     14 N          -2.4607   -0.6556    0.4645 N.2     1  UNL11      -0.0071
     15 N          -3.4086   -1.2299    1.1618 N.am    1  UNL11      -0.0356
     16 C          -3.4282   -2.5856    1.2395 C.2     1  UNL11       0.4383
     17 O          -4.2989   -3.2141    1.8860 O.2     1  UNL11      -0.2116
     18 C          -2.4500   -3.2935    0.5788 C.ar    1  UNL11       0.1004
     19 C          -2.4563   -4.6966    0.6272 C.ar    1  UNL11      -0.0441
     20 C          -1.5020   -5.4182   -0.0376 C.ar    1  UNL11      -0.0608
     21 C          -0.5133   -4.8055   -0.7687 C.ar    1  UNL11      -0.0611
     22 C          -0.4886   -3.4215   -0.8286 C.ar    1  UNL11      -0.0518
     23 C          -1.4582   -2.6768   -0.1516 C.ar    1  UNL11       0.0194
     24 C           1.8903    1.3222    1.6443 C.ar    1  UNL11      -0.0370
     25 H           1.8937    2.2915    3.6937 H       1  UNL11       0.0235
     26 H           3.5366    2.9139    4.0617 H       1  UNL11       0.0235
     27 H           2.5859    1.8891    5.2881 H       1  UNL11       0.0235
     28 H           2.9974   -0.0522    4.1285 H       1  UNL11       0.0343
     29 H           5.1340    0.3041    4.8272 H       1  UNL11       0.0235
     30 H           5.3768    0.0823    3.0578 H       1  UNL11       0.0235
     31 H           5.3838    1.7645    3.7984 H       1  UNL11       0.0235
     32 H           4.8242   -0.2240    1.5848 H       1  UNL11       0.0620
     33 H           4.2693   -0.3389   -0.7856 H       1  UNL11       0.0618
     34 H           2.1154    0.6333   -1.6667 H       1  UNL11       0.0636
     35 H           0.0413    2.7869   -0.0909 H       1  UNL11       0.1548
     36 H           0.5591   -0.7488   -0.5111 H       1  UNL11       0.0425
     37 H          -0.4755   -0.7605   -2.0250 H       1  UNL11       0.0425
     38 H          -4.1565   -0.6964    1.6627 H       1  UNL11       0.4829
     39 H          -3.2426   -5.1897    1.2108 H       1  UNL11       0.0627
     40 H          -1.4892   -6.4989   -0.0095 H       1  UNL11       0.0618
     41 H           0.2605   -5.3711   -1.3092 H       1  UNL11       0.0618
     42 H           0.2721   -2.9238   -1.4154 H       1  UNL11       0.0624
     43 H           1.2252    1.7897    2.3730 H       1  UNL11       0.0639
@<TRIPOS>BOND
     1     1     2    1
     2     1    25    1
     3     1    26    1
     4     1    27    1
     5     2     3    1
     6     2     4    1
     7     2    28    1
     8     3    29    1
     9     3    30    1
    10     3    31    1
    11     4     5   ar
    12     5     6   ar
    13     5    32    1
    14     6     7   ar
    15     6    33    1
    16     7     8   ar
    17     7    34    1
    18     8     9    1
    19     8    24   ar
    20     9    10   am
    21     9    35    1
    22    10    11    2
    23    10    12    1
    24    12    13    1
    25    12    36    1
    26    12    37    1
    27    13    14    2
    28    14    15    1
    29    15    16   am
    30    15    38    1
    31    16    17    2
    32    16    18    1
    33    18    19   ar
    34    19    20   ar
    35    19    39    1
    36    20    21   ar
    37    20    40    1
    38    21    22   ar
    39    21    41    1
    40    22    23   ar
    41    22    42    1
    42    23    13    1
    43    23    18   ar
    44    24     4   ar
    45    24    43    1
@<TRIPOS>MOLECULE
*****
 43 45 0 0 0
SMALL
GASTEIGER

@<TRIPOS>ATOM
      1 C           5.4598    1.3050    3.2383 C.3     1  UNL11      -0.0586
      2 C           4.2285    2.1320    2.8521 C.3     1  UNL11      -0.0215
      3 C           3.3889    2.4251    4.0814 C.3     1  UNL11      -0.0586
      4 C           3.4581    1.4342    1.7915 C.ar    1  UNL11      -0.0430
      5 C           3.8783    0.2154    1.2920 C.ar    1  UNL11      -0.0582
      6 C           3.1529   -0.4589    0.3317 C.ar    1  UNL11      -0.0597
      7 C           1.9854    0.0401   -0.1749 C.ar    1  UNL11      -0.0405
      8 C           1.5408    1.2734    0.3164 C.ar    1  UNL11       0.0337
      9 N           0.3019    1.7695   -0.1615 N.am    1  UNL11      -0.2852
     10 C          -0.6804    0.9277   -0.7694 C.2     1  UNL11       0.2232
     11 O          -1.7214    1.5019   -1.1573 O.2     1  UNL11      -0.2751
     12 C          -0.4453   -0.5347   -0.9139 C.3     1  UNL11       0.0728
     13 C           0.8642   -0.9154   -0.3655 C.2     1  UNL11       0.1237
     14 N           0.9649   -1.2801    0.9386 N.2     1  UNL11      -0.0071
     15 N           2.0770   -1.6044    1.5491 N.am    1  UNL11      -0.0356
     16 C           3.2368   -1.5819    0.8429 C.2     1  UNL11       0.4383
     17 O           4.3442   -1.8768    1.3504 O.2     1  UNL11      -0.2116
     18 C           3.1883   -1.2205   -0.4844 C.ar    1  UNL11       0.1004
     19 C           4.3694   -1.2059   -1.2432 C.ar    1  UNL11      -0.0441
     20 C           4.3385   -0.8660   -2.5686 C.ar    1  UNL11      -0.0608
     21 C           3.1656   -0.5301   -3.2001 C.ar    1  UNL11      -0.0611
     22 C           1.9888   -0.5373   -2.4689 C.ar    1  UNL11      -0.0518
     23 C           2.0113   -0.8816   -1.1147 C.ar    1  UNL11       0.0194
     24 C           2.2775    1.9306    1.2721 C.ar    1  UNL11      -0.0370
     25 H           5.7690    0.7699    2.3083 H       1  UNL11       0.0235
     26 H           5.1458    0.5354    3.9751 H       1  UNL11       0.0235
     27 H           6.2887    1.9397    3.5511 H       1  UNL11       0.0235
     28 H           4.6101    3.1181    2.5139 H       1  UNL11       0.0343
     29 H           3.8084    3.3148    4.6349 H       1  UNL11       0.0235
     30 H           2.3612    2.6840    3.7710 H       1  UNL11       0.0235
     31 H           3.3964    1.5664    4.7994 H       1  UNL11       0.0235
     32 H           4.7981   -0.1838    1.6942 H       1  UNL11       0.0620
     33 H           3.5440   -1.3991   -0.0058 H       1  UNL11       0.0618
     34 H           1.3910   -0.4778   -0.9420 H       1  UNL11       0.0636
     35 H           0.0413    2.7869   -0.0909 H       1  UNL11       0.1548
     36 H          -0.5086   -0.7744   -1.9889 H       1  UNL11       0.0425
     37 H          -1.2798   -1.0554   -0.3491 H       1  UNL11       0.0425
     38 H           2.1185   -1.8833    2.5568 H       1  UNL11       0.4829
     39 H           5.3080   -1.4719   -0.7428 H       1  UNL11       0.0627
     40 H           5.2381   -0.8466   -3.1680 H       1  UNL11       0.0618
     41 H           3.1238   -0.2552   -4.2648 H       1  UNL11       0.0618
     42 H           1.0537   -0.2935   -2.9557 H       1  UNL11       0.0624
     43 H           1.9388    2.8906    1.6661 H       1  UNL11       0.0639
@<TRIPOS>BOND
     1     1     2    1
     2     1    25    1
     3     1    26    1
     4     1    27    1
     5     2     3    1
     6     2     4    1
     7     2    28    1
     8     3    29    1
     9     3    30    1
    10     3    31    1
    11     4     5   ar
    12     5     6   ar
    13     5    32    1
    14     6     7   ar
    15     6    33    1
    16     7     8   ar
    17     7    34    1
    18     8     9    1
    19     8    24   ar
    20     9    10   am
    21     9    35    1
    22    10    11    2
    23    10    12    1
    24    12    13    1
    25    12    36    1
    26    12    37    1
    27    13    14    2
    28    14    15    1
    29    15    16   am
    30    15    38    1
    31    16    17    2
    32    16    18    1
    33    18    19   ar
    34    19    20   ar
    35    19    39    1
    36    20    21   ar
    37    20    40    1
    38    21    22   ar
    39    21    41    1
    40    22    23   ar
    41    22    42    1
    42    23    13    1
    43    23    18   ar
    44    24     4   ar
    45    24    43    1
@<TRIPOS>MOLECULE
*****
 43 45 0 0 0
SMALL
GASTEIGER

@<TRIPOS>ATOM
      1 C           5.9964   -0.6696   -0.2026 C.3     1  UNL11      -0.0586
      2 C           4.7239   -0.3277   -0.9856 C.3     1  UNL11      -0.0215
      3 C           5.0563    0.5857   -2.1505 C.3     1  UNL11      -0.0586
      4 C           3.7079    0.2595   -0.0755 C.ar    1  UNL11      -0.0430
      5 C           3.9726    0.4305    1.2707 C.ar    1  UNL11      -0.0582
      6 C           3.0502    1.0065    2.1194 C.ar    1  UNL11      -0.0597
      7 C           1.8306    1.4368    1.6763 C.ar    1  UNL11      -0.0405
      8 C           1.5408    1.2734    0.3164 C.ar    1  UNL11       0.0337
      9 N           0.3019    1.7695   -0.1615 N.am    1  UNL11      -0.2852
     10 C          -0.6804    0.9277   -0.7694 C.2     1  UNL11       0.2232
     11 O          -0.3789   -0.2829   -0.8551 O.2     1  UNL11      -0.2751
     12 C          -1.9682    1.4910   -1.2582 C.3     1  UNL11       0.0728
     13 C          -2.0343    2.9401   -1.0207 C.2     1  UNL11       0.1237
     14 N          -1.3718    3.4776    0.0356 N.2     1  UNL11      -0.0071
     15 N          -1.3833    4.7434    0.3704 N.am    1  UNL11      -0.0356
     16 C          -2.1091    5.6088   -0.3838 C.2     1  UNL11       0.4383
     17 O          -2.1749    6.8350   -0.1325 O.2     1  UNL11      -0.2116
     18 C          -2.7980    5.1139   -1.4677 C.ar    1  UNL11       0.1004
     19 C          -3.5420    5.9886   -2.2754 C.ar    1  UNL11      -0.0441
     20 C          -4.2196    5.5178   -3.3674 C.ar    1  UNL11      -0.0608
     21 C          -4.1985    4.1879   -3.7114 C.ar    1  UNL11      -0.0611
     22 C          -3.4709    3.3077   -2.9268 C.ar    1  UNL11      -0.0518
     23 C          -2.7774    3.7796   -1.8091 C.ar    1  UNL11       0.0194
     24 C           2.4720    0.6966   -0.5131 C.ar    1  UNL11      -0.0370
     25 H           5.6555   -0.9423    0.8252 H       1  UNL11       0.0235
     26 H           6.6101    0.2521   -0.1150 H       1  UNL11       0.0235
     27 H           6.5093   -1.5331   -0.6258 H       1  UNL11       0.0235
     28 H           4.3773   -1.2770   -1.4450 H       1  UNL11       0.0343
     29 H           5.4277   -0.0216   -3.0263 H       1  UNL11       0.0235
     30 H           4.1418    1.1115   -2.4774 H       1  UNL11       0.0235
     31 H           5.8722    1.3061   -1.8891 H       1  UNL11       0.0235
     32 H           4.9377    0.0960    1.6227 H       1  UNL11       0.0620
     33 H           3.3291    1.1048    3.1506 H       1  UNL11       0.0618
     34 H           1.0782    1.8968    2.3338 H       1  UNL11       0.0636
     35 H           0.0413    2.7869   -0.0909 H       1  UNL11       0.1548
     36 H          -2.7805    0.9660   -0.7276 H       1  UNL11       0.0425
     37 H          -2.0202    1.2671   -2.3689 H       1  UNL11       0.0425
     38 H          -0.8584    5.1251    1.1913 H       1  UNL11       0.4829
     39 H          -3.5629    7.0506   -2.0037 H       1  UNL11       0.0627
     40 H          -4.7999    6.1758   -3.9992 H       1  UNL11       0.0618
     41 H          -4.7370    3.7938   -4.5862 H       1  UNL11       0.0618
     42 H          -3.4285    2.2603   -3.1947 H       1  UNL11       0.0624
     43 H           2.2593    0.5679   -1.5761 H       1  UNL11       0.0639
@<TRIPOS>BOND
     1     1     2    1
     2     1    25    1
     3     1    26    1
     4     1    27    1
     5     2     3    1
     6     2     4    1
     7     2    28    1
     8     3    29    1
     9     3    30    1
    10     3    31    1
    11     4     5   ar
    12     5     6   ar
    13     5    32    1
    14     6     7   ar
    15     6    33    1
    16     7     8   ar
    17     7    34    1
    18     8     9    1
    19     8    24   ar
    20     9    10   am
    21     9    35    1
    22    10    11    2
    23    10    12    1
    24    12    13    1
    25    12    36    1
    26    12    37    1
    27    13    14    2
    28    14    15    1
    29    15    16   am
    30    15    38    1
    31    16    17    2
    32    16    18    1
    33    18    19   ar
    34    19    20   ar
    35    19    39    1
    36    20    21   ar
    37    20    40    1
    38    21    22   ar
    39    21    41    1
    40    22    23   ar
    41    22    42    1
    42    23    13    1
    43    23    18   ar
    44    24     4   ar
    45    24    43    1
@<TRIPOS>MOLECULE
*****
 43 45 0 0 0
SMALL
GASTEIGER

@<TRIPOS>ATOM
      1 C           5.6239    3.1235    0.7790 C.3     1  UNL11      -0.0586
      2 C           5.2624    1.8994   -0.0696 C.3     1  UNL11      -0.0215
      3 C           5.2593    2.2660   -1.5417 C.3     1  UNL11      -0.0586
      4 C           3.9637    1.3348    0.3777 C.ar    1  UNL11      -0.0430
      5 C           3.9112    0.3584    1.3552 C.ar    1  UNL11      -0.0582
      6 C           2.7093   -0.1488    1.8037 C.ar    1  UNL11      -0.0597
      7 C           1.5117    0.2850    1.3075 C.ar    1  UNL11      -0.0405
      8 C           1.5408    1.2734    0.3164 C.ar    1  UNL11       0.0337
      9 N           0.3019    1.7695   -0.1615 N.am    1  UNL11      -0.2852
     10 C          -0.6804    0.9277   -0.7694 C.2     1  UNL11       0.2232
     11 O          -1.7214    1.5019   -1.1573 O.2     1  UNL11      -0.2751
     12 C          -0.4453   -0.5347   -0.9139 C.3     1  UNL11       0.0728
     13 C           0.2064   -0.8403   -2.1956 C.2     1  UNL11       0.1237
     14 N          -0.5544   -1.1066   -3.2882 N.2     1  UNL11      -0.0071
     15 N          -0.0928   -1.4260   -4.4712 N.am    1  UNL11      -0.0356
     16 C           1.2518   -1.5040   -4.6450 C.2     1  UNL11       0.4383
     17 O           1.7762   -1.8040   -5.7432 O.2     1  UNL11      -0.2116
     18 C           2.0676   -1.2412   -3.5680 C.ar    1  UNL11       0.1004
     19 C           3.4618   -1.2969   -3.7235 C.ar    1  UNL11      -0.0441
     20 C           4.2893   -1.0219   -2.6686 C.ar    1  UNL11      -0.0608
     21 C           3.7943   -0.6850   -1.4321 C.ar    1  UNL11      -0.0611
     22 C           2.4212   -0.6253   -1.2572 C.ar    1  UNL11      -0.0518
     23 C           1.5688   -0.9061   -2.3285 C.ar    1  UNL11       0.0194
     24 C           2.7477    1.7656   -0.1182 C.ar    1  UNL11      -0.0370
     25 H           5.1935    2.9285    1.7907 H       1  UNL11       0.0235
     26 H           5.0974    4.0067    0.3589 H       1  UNL11       0.0235
     27 H           6.7027    3.2322    0.8890 H       1  UNL11       0.0235
     28 H           6.0978    1.1786    0.0530 H       1  UNL11       0.0343
     29 H           6.3105    2.2352   -1.9517 H       1  UNL11       0.0235
     30 H           4.6641    1.5247   -2.1036 H       1  UNL11       0.0235
     31 H           4.8800    3.3062   -1.7062 H       1  UNL11       0.0235
     32 H           4.8560    0.0174    1.7529 H       1  UNL11       0.0620
     33 H           2.7508   -0.9043    2.5642 H       1  UNL11       0.0618
     34 H           0.5411   -0.1056    1.6475 H       1  UNL11       0.0636
     35 H           0.0413    2.7869   -0.0909 H       1  UNL11       0.1548
     36 H          -1.4255   -1.0353   -0.8395 H       1  UNL11       0.0425
     37 H           0.2170   -0.8447   -0.0470 H       1  UNL11       0.0425
     38 H          -0.7087   -1.6231   -5.2939 H       1  UNL11       0.4829
     39 H           3.8611   -1.5669   -4.7082 H       1  UNL11       0.0627
     40 H           5.3650   -1.0625   -2.7688 H       1  UNL11       0.0618
     41 H           4.4459   -0.4604   -0.5744 H       1  UNL11       0.0618
     42 H           2.0152   -0.3431   -0.2948 H       1  UNL11       0.0624
     43 H           2.7832    2.5397   -0.8872 H       1  UNL11       0.0639
@<TRIPOS>BOND
     1     1     2    1
     2     1    25    1
     3     1    26    1
     4     1    27    1
     5     2     3    1
     6     2     4    1
     7     2    28    1
     8     3    29    1
     9     3    30    1
    10     3    31    1
    11     4     5   ar
    12     5     6   ar
    13     5    32    1
    14     6     7   ar
    15     6    33    1
    16     7     8   ar
    17     7    34    1
    18     8     9    1
    19     8    24   ar
    20     9    10   am
    21     9    35    1
    22    10    11    2
    23    10    12    1
    24    12    13    1
    25    12    36    1
    26    12    37    1
    27    13    14    2
    28    14    15    1
    29    15    16   am
    30    15    38    1
    31    16    17    2
    32    16    18    1
    33    18    19   ar
    34    19    20   ar
    35    19    39    1
    36    20    21   ar
    37    20    40    1
    38    21    22   ar
    39    21    41    1
    40    22    23   ar
    41    22    42    1
    42    23    13    1
    43    23    18   ar
    44    24     4   ar
    45    24    43    1
@<TRIPOS>MOLECULE
*****
 43 45 0 0 0
SMALL
GASTEIGER

@<TRIPOS>ATOM
      1 C           4.7731    0.5955   -2.2977 C.3     1  UNL11      -0.0586
      2 C           5.1318    0.8426   -0.8281 C.3     1  UNL11      -0.0215
      3 C           6.1619   -0.1699   -0.3639 C.3     1  UNL11      -0.0586
      4 C           3.9033    0.8260    0.0061 C.ar    1  UNL11      -0.0430
      5 C           3.9434    0.4082    1.3234 C.ar    1  UNL11      -0.0582
      6 C           2.8161    0.4212    2.1184 C.ar    1  UNL11      -0.0597
      7 C           1.6049    0.8458    1.6480 C.ar    1  UNL11      -0.0405
      8 C           1.5408    1.2734    0.3164 C.ar    1  UNL11       0.0337
      9 N           0.3019    1.7695   -0.1615 N.am    1  UNL11      -0.2852
     10 C          -0.6804    0.9277   -0.7694 C.2     1  UNL11       0.2232
     11 O          -1.7214    1.5019   -1.1573 O.2     1  UNL11      -0.2751
     12 C          -0.4453   -0.5347   -0.9139 C.3     1  UNL11       0.0728
     13 C           0.7594   -0.7990   -1.7137 C.2     1  UNL11       0.1237
     14 N           0.6538   -0.9348   -3.0606 N.2     1  UNL11      -0.0071
     15 N           1.6443   -1.2059   -3.8729 N.am    1  UNL11      -0.0356
     16 C           2.8874   -1.3690   -3.3508 C.2     1  UNL11       0.4383
     17 O           3.8892   -1.6310   -4.0569 O.2     1  UNL11      -0.2116
     18 C           3.0480   -1.2395   -1.9899 C.ar    1  UNL11       0.1004
     19 C           4.3249   -1.3854   -1.4249 C.ar    1  UNL11      -0.0441
     20 C           4.5073   -1.2431   -0.0759 C.ar    1  UNL11      -0.0608
     21 C           3.4613   -0.9559    0.7672 C.ar    1  UNL11      -0.0611
     22 C           2.1927   -0.8089    0.2298 C.ar    1  UNL11      -0.0518
     23 C           1.9972   -0.9540   -1.1463 C.ar    1  UNL11       0.0194
     24 C           2.6741    1.2522   -0.4602 C.ar    1  UNL11      -0.0370
     25 H           3.7576    1.0374   -2.4399 H       1  UNL11       0.0235
     26 H           4.6832   -0.5004   -2.4551 H       1  UNL11       0.0235
     27 H           5.4594    1.1088   -2.9709 H       1  UNL11       0.0235
     28 H           5.6483    1.8248   -0.7952 H       1  UNL11       0.0343
     29 H           7.1969    0.1617   -0.6685 H       1  UNL11       0.0235
     30 H           6.1460   -0.2309    0.7386 H       1  UNL11       0.0235
     31 H           5.9941   -1.1724   -0.8325 H       1  UNL11       0.0235
     32 H           4.9004    0.0768    1.6994 H       1  UNL11       0.0620
     33 H           2.9274    0.0817    3.1300 H       1  UNL11       0.0618
     34 H           0.6922    0.8633    2.2617 H       1  UNL11       0.0636
     35 H           0.0413    2.7869   -0.0909 H       1  UNL11       0.1548
     36 H          -1.3403   -0.9670   -1.3925 H       1  UNL11       0.0425
     37 H          -0.3256   -0.9498    0.1348 H       1  UNL11       0.0425
     38 H           1.5280   -1.3017   -4.9085 H       1  UNL11       0.4829
     39 H           5.1624   -1.6161   -2.0939 H       1  UNL11       0.0627
     40 H           5.4826   -1.3545    0.3773 H       1  UNL11       0.0618
     41 H           3.5914   -0.8378    1.8534 H       1  UNL11       0.0618
     42 H           1.3613   -0.5641    0.8775 H       1  UNL11       0.0624
     43 H           2.6377    1.5874   -1.4985 H       1  UNL11       0.0639
@<TRIPOS>BOND
     1     1     2    1
     2     1    25    1
     3     1    26    1
     4     1    27    1
     5     2     3    1
     6     2     4    1
     7     2    28    1
     8     3    29    1
     9     3    30    1
    10     3    31    1
    11     4     5   ar
    12     5     6   ar
    13     5    32    1
    14     6     7   ar
    15     6    33    1
    16     7     8   ar
    17     7    34    1
    18     8     9    1
    19     8    24   ar
    20     9    10   am
    21     9    35    1
    22    10    11    2
    23    10    12    1
    24    12    13    1
    25    12    36    1
    26    12    37    1
    27    13    14    2
    28    14    15    1
    29    15    16   am
    30    15    38    1
    31    16    17    2
    32    16    18    1
    33    18    19   ar
    34    19    20   ar
    35    19    39    1
    36    20    21   ar
    37    20    40    1
    38    21    22   ar
    39    21    41    1
    40    22    23   ar
    41    22    42    1
    42    23    13    1
    43    23    18   ar
    44    24     4   ar
    45    24    43    1
@<TRIPOS>MOLECULE
*****
 43 45 0 0 0
SMALL
GASTEIGER

@<TRIPOS>ATOM
      1 C           4.1779   -1.6080   -1.6274 C.3     1  UNL11      -0.0586
      2 C           4.7239   -0.3277   -0.9856 C.3     1  UNL11      -0.0215
      3 C           6.0368   -0.6146   -0.2814 C.3     1  UNL11      -0.0586
      4 C           3.7079    0.2595   -0.0755 C.ar    1  UNL11      -0.0430
      5 C           3.9726    0.4305    1.2707 C.ar    1  UNL11      -0.0582
      6 C           3.0502    1.0065    2.1194 C.ar    1  UNL11      -0.0597
      7 C           1.8306    1.4368    1.6763 C.ar    1  UNL11      -0.0405
      8 C           1.5408    1.2734    0.3164 C.ar    1  UNL11       0.0337
      9 N           0.3019    1.7695   -0.1615 N.am    1  UNL11      -0.2852
     10 C          -0.6804    0.9277   -0.7694 C.2     1  UNL11       0.2232
     11 O          -0.3789   -0.2829   -0.8551 O.2     1  UNL11      -0.2751
     12 C          -1.9682    1.4910   -1.2582 C.3     1  UNL11       0.0728
     13 C          -1.8055    2.8890   -1.6824 C.2     1  UNL11       0.1237
     14 N          -2.5894    3.3844   -2.6743 N.2     1  UNL11      -0.0071
     15 N          -2.5152    4.5974   -3.1619 N.am    1  UNL11      -0.0356
     16 C          -1.5874    5.4476   -2.6514 C.2     1  UNL11       0.4383
     17 O          -1.4490    6.6240   -3.0613 O.2     1  UNL11      -0.2116
     18 C          -0.7686    4.9941   -1.6422 C.ar    1  UNL11       0.1004
     19 C           0.1874    5.8571   -1.0835 C.ar    1  UNL11      -0.0441
     20 C           0.9988    5.4296   -0.0675 C.ar    1  UNL11      -0.0608
     21 C           0.9105    4.1554    0.4386 C.ar    1  UNL11      -0.0611
     22 C          -0.0258    3.2875   -0.0995 C.ar    1  UNL11      -0.0518
     23 C          -0.8573    3.7152   -1.1381 C.ar    1  UNL11       0.0194
     24 C           2.4720    0.6966   -0.5131 C.ar    1  UNL11      -0.0370
     25 H           3.0766   -1.4517   -1.7254 H       1  UNL11       0.0235
     26 H           4.3321   -2.4475   -0.9166 H       1  UNL11       0.0235
     27 H           4.5848   -1.7620   -2.6267 H       1  UNL11       0.0235
     28 H           4.9815    0.3543   -1.8229 H       1  UNL11       0.0343
     29 H           6.8868   -0.6006   -1.0238 H       1  UNL11       0.0235
     30 H           6.2352    0.1771    0.4625 H       1  UNL11       0.0235
     31 H           6.0378   -1.6298    0.1901 H       1  UNL11       0.0235
     32 H           4.9377    0.0960    1.6227 H       1  UNL11       0.0620
     33 H           3.3291    1.1048    3.1506 H       1  UNL11       0.0618
     34 H           1.0782    1.8968    2.3338 H       1  UNL11       0.0636
     35 H           0.0413    2.7869   -0.0909 H       1  UNL11       0.1548
     36 H          -2.6975    1.4101   -0.4345 H       1  UNL11       0.0425
     37 H          -2.2945    0.8455   -2.1319 H       1  UNL11       0.0425
     38 H          -3.1377    4.9480   -3.9265 H       1  UNL11       0.4829
     39 H           0.2623    6.8744   -1.4854 H       1  UNL11       0.0627
     40 H           1.7424    6.0790    0.3731 H       1  UNL11       0.0618
     41 H           1.5547    3.7967    1.2553 H       1  UNL11       0.0618
     42 H          -0.1211    2.2867    0.3004 H       1  UNL11       0.0624
     43 H           2.2593    0.5679   -1.5761 H       1  UNL11       0.0639
@<TRIPOS>BOND
     1     1     2    1
     2     1    25    1
     3     1    26    1
     4     1    27    1
     5     2     3    1
     6     2     4    1
     7     2    28    1
     8     3    29    1
     9     3    30    1
    10     3    31    1
    11     4     5   ar
    12     5     6   ar
    13     5    32    1
    14     6     7   ar
    15     6    33    1
    16     7     8   ar
    17     7    34    1
    18     8     9    1
    19     8    24   ar
    20     9    10   am
    21     9    35    1
    22    10    11    2
    23    10    12    1
    24    12    13    1
    25    12    36    1
    26    12    37    1
    27    13    14    2
    28    14    15    1
    29    15    16   am
    30    15    38    1
    31    16    17    2
    32    16    18    1
    33    18    19   ar
    34    19    20   ar
    35    19    39    1
    36    20    21   ar
    37    20    40    1
    38    21    22   ar
    39    21    41    1
    40    22    23   ar
    41    22    42    1
    42    23    13    1
    43    23    18   ar
    44    24     4   ar
    45    24    43    1
@<TRIPOS>MOLECULE
*****
 43 45 0 0 0
SMALL
GASTEIGER

@<TRIPOS>ATOM
      1 C           4.4358   -0.9064    3.5973 C.3     1  UNL11      -0.0586
      2 C           3.0182   -0.3553    3.4076 C.3     1  UNL11      -0.0215
      3 C           1.9941   -1.4395    3.6856 C.3     1  UNL11      -0.0586
      4 C           2.8751    0.2260    2.0485 C.ar    1  UNL11      -0.0430
      5 C           3.9322    0.2201    1.1573 C.ar    1  UNL11      -0.0582
      6 C           3.8013    0.7255   -0.1195 C.ar    1  UNL11      -0.0597
      7 C           2.6249    1.2569   -0.5694 C.ar    1  UNL11      -0.0405
      8 C           1.5408    1.2734    0.3164 C.ar    1  UNL11       0.0337
      9 N           0.3019    1.7695   -0.1615 N.am    1  UNL11      -0.2852
     10 C          -0.6804    0.9277   -0.7694 C.2     1  UNL11       0.2232
     11 O          -1.7214    1.5019   -1.1573 O.2     1  UNL11      -0.2751
     12 C          -0.4453   -0.5347   -0.9139 C.3     1  UNL11       0.0728
     13 C          -0.9454   -1.2679    0.2578 C.2     1  UNL11       0.1237
     14 N          -0.1194   -1.4913    1.3120 N.2     1  UNL11      -0.0071
     15 N          -0.4364   -2.1596    2.3925 N.am    1  UNL11      -0.0356
     16 C          -1.6863   -2.6815    2.4908 C.2     1  UNL11       0.4383
     17 O          -2.0706   -3.3348    3.4891 O.2     1  UNL11      -0.2116
     18 C          -2.5632   -2.4814    1.4489 C.ar    1  UNL11       0.1004
     19 C          -3.8674   -2.9944    1.5313 C.ar    1  UNL11      -0.0441
     20 C          -4.7589   -2.7908    0.5129 C.ar    1  UNL11      -0.0608
     21 C          -4.4166   -2.0856   -0.6153 C.ar    1  UNL11      -0.0611
     22 C          -3.1340   -1.5716   -0.7169 C.ar    1  UNL11      -0.0518
     23 C          -2.2168   -1.7761    0.3175 C.ar    1  UNL11       0.0194
     24 C           1.6907    0.7663    1.5846 C.ar    1  UNL11      -0.0370
     25 H           5.0997   -0.2530    2.9816 H       1  UNL11       0.0235
     26 H           4.4749   -1.9263    3.1590 H       1  UNL11       0.0235
     27 H           4.7608   -0.8318    4.6349 H       1  UNL11       0.0235
     28 H           2.8699    0.4020    4.2058 H       1  UNL11       0.0343
     29 H           1.8090   -1.5232    4.7959 H       1  UNL11       0.0235
     30 H           1.0346   -1.1688    3.2106 H       1  UNL11       0.0235
     31 H           2.3530   -2.4427    3.3425 H       1  UNL11       0.0235
     32 H           4.8617   -0.2038    1.5085 H       1  UNL11       0.0620
     33 H           4.6667    0.6855   -0.7523 H       1  UNL11       0.0618
     34 H           2.4969    1.6676   -1.5818 H       1  UNL11       0.0636
     35 H           0.0413    2.7869   -0.0909 H       1  UNL11       0.1548
     36 H           0.6405   -0.6835   -1.0396 H       1  UNL11       0.0425
     37 H          -0.9941   -0.8610   -1.8514 H       1  UNL11       0.0425
     38 H           0.2254   -2.3114    3.1887 H       1  UNL11       0.4829
     39 H          -4.1444   -3.5592    2.4292 H       1  UNL11       0.0627
     40 H          -5.7664   -3.1806    0.5575 H       1  UNL11       0.0618
     41 H          -5.1216   -1.9126   -1.4423 H       1  UNL11       0.0618
     42 H          -2.8541   -0.9978   -1.5904 H       1  UNL11       0.0624
     43 H           0.8515    0.7695    2.2828 H       1  UNL11       0.0639
@<TRIPOS>BOND
     1     1     2    1
     2     1    25    1
     3     1    26    1
     4     1    27    1
     5     2     3    1
     6     2     4    1
     7     2    28    1
     8     3    29    1
     9     3    30    1
    10     3    31    1
    11     4     5   ar
    12     5     6   ar
    13     5    32    1
    14     6     7   ar
    15     6    33    1
    16     7     8   ar
    17     7    34    1
    18     8     9    1
    19     8    24   ar
    20     9    10   am
    21     9    35    1
    22    10    11    2
    23    10    12    1
    24    12    13    1
    25    12    36    1
    26    12    37    1
    27    13    14    2
    28    14    15    1
    29    15    16   am
    30    15    38    1
    31    16    17    2
    32    16    18    1
    33    18    19   ar
    34    19    20   ar
    35    19    39    1
    36    20    21   ar
    37    20    40    1
    38    21    22   ar
    39    21    41    1
    40    22    23   ar
    41    22    42    1
    42    23    13    1
    43    23    18   ar
    44    24     4   ar
    45    24    43    1
@<TRIPOS>MOLECULE
*****
 43 45 0 0 0
SMALL
GASTEIGER

@<TRIPOS>ATOM
      1 C           5.0770    0.6706   -2.0937 C.3     1  UNL11      -0.0586
      2 C           4.7239   -0.3277   -0.9856 C.3     1  UNL11      -0.0215
      3 C           4.2695   -1.6423   -1.5914 C.3     1  UNL11      -0.0586
      4 C           3.7079    0.2595   -0.0755 C.ar    1  UNL11      -0.0430
      5 C           3.9726    0.4305    1.2707 C.ar    1  UNL11      -0.0582
      6 C           3.0502    1.0065    2.1194 C.ar    1  UNL11      -0.0597
      7 C           1.8306    1.4368    1.6763 C.ar    1  UNL11      -0.0405
      8 C           1.5408    1.2734    0.3164 C.ar    1  UNL11       0.0337
      9 N           0.3019    1.7695   -0.1615 N.am    1  UNL11      -0.2852
     10 C          -0.6804    0.9277   -0.7694 C.2     1  UNL11       0.2232
     11 O          -1.7214    1.5019   -1.1573 O.2     1  UNL11      -0.2751
     12 C          -0.4453   -0.5347   -0.9139 C.3     1  UNL11       0.0728
     13 C          -1.7111   -1.2802   -0.8628 C.2     1  UNL11       0.1237
     14 N          -2.0847   -2.0412   -1.9235 N.2     1  UNL11      -0.0071
     15 N          -3.2010   -2.7199   -2.0112 N.am    1  UNL11      -0.0356
     16 C          -4.0723   -2.6755   -0.9703 C.2     1  UNL11       0.4383
     17 O          -5.1624   -3.2941   -0.9731 O.2     1  UNL11      -0.2116
     18 C          -3.7393   -1.9192    0.1305 C.ar    1  UNL11       0.1004
     19 C          -4.6130   -1.8695    1.2282 C.ar    1  UNL11      -0.0441
     20 C          -4.2913   -1.1368    2.3386 C.ar    1  UNL11      -0.0608
     21 C          -3.1158   -0.4305    2.4212 C.ar    1  UNL11      -0.0611
     22 C          -2.2400   -0.4655    1.3482 C.ar    1  UNL11      -0.0518
     23 C          -2.5613   -1.2098    0.2098 C.ar    1  UNL11       0.0194
     24 C           2.4720    0.6966   -0.5131 C.ar    1  UNL11      -0.0370
     25 H           4.9690    1.6830   -1.6350 H       1  UNL11       0.0235
     26 H           4.3128    0.5863   -2.8954 H       1  UNL11       0.0235
     27 H           6.1107    0.5594   -2.4208 H       1  UNL11       0.0235
     28 H           5.6745   -0.5581   -0.4605 H       1  UNL11       0.0343
     29 H           5.1643   -2.2719   -1.8686 H       1  UNL11       0.0235
     30 H           3.6859   -2.2087   -0.8443 H       1  UNL11       0.0235
     31 H           3.6849   -1.4817   -2.5324 H       1  UNL11       0.0235
     32 H           4.9377    0.0960    1.6227 H       1  UNL11       0.0620
     33 H           3.3291    1.1048    3.1506 H       1  UNL11       0.0618
     34 H           1.0782    1.8968    2.3338 H       1  UNL11       0.0636
     35 H           0.0413    2.7869   -0.0909 H       1  UNL11       0.1548
     36 H           0.2284   -0.8429   -0.0966 H       1  UNL11       0.0425
     37 H           0.0644   -0.6845   -1.9160 H       1  UNL11       0.0425
     38 H          -3.4570   -3.2991   -2.8442 H       1  UNL11       0.4829
     39 H          -5.5529   -2.4305    1.1660 H       1  UNL11       0.0627
     40 H          -4.9527   -1.0845    3.1922 H       1  UNL11       0.0618
     41 H          -2.8422    0.1625    3.3067 H       1  UNL11       0.0618
     42 H          -1.3015    0.0699    1.4046 H       1  UNL11       0.0624
     43 H           2.2593    0.5679   -1.5761 H       1  UNL11       0.0639
@<TRIPOS>BOND
     1     1     2    1
     2     1    25    1
     3     1    26    1
     4     1    27    1
     5     2     3    1
     6     2     4    1
     7     2    28    1
     8     3    29    1
     9     3    30    1
    10     3    31    1
    11     4     5   ar
    12     5     6   ar
    13     5    32    1
    14     6     7   ar
    15     6    33    1
    16     7     8   ar
    17     7    34    1
    18     8     9    1
    19     8    24   ar
    20     9    10   am
    21     9    35    1
    22    10    11    2
    23    10    12    1
    24    12    13    1
    25    12    36    1
    26    12    37    1
    27    13    14    2
    28    14    15    1
    29    15    16   am
    30    15    38    1
    31    16    17    2
    32    16    18    1
    33    18    19   ar
    34    19    20   ar
    35    19    39    1
    36    20    21   ar
    37    20    40    1
    38    21    22   ar
    39    21    41    1
    40    22    23   ar
    41    22    42    1
    42    23    13    1
    43    23    18   ar
    44    24     4   ar
    45    24    43    1
@<TRIPOS>MOLECULE
*****
 43 45 0 0 0
SMALL
GASTEIGER

@<TRIPOS>ATOM
      1 C           5.0770    0.6706   -2.0937 C.3     1  UNL11      -0.0586
      2 C           4.7239   -0.3277   -0.9856 C.3     1  UNL11      -0.0215
      3 C           4.2695   -1.6423   -1.5914 C.3     1  UNL11      -0.0586
      4 C           3.7079    0.2595   -0.0755 C.ar    1  UNL11      -0.0430
      5 C           3.9726    0.4305    1.2707 C.ar    1  UNL11      -0.0582
      6 C           3.0502    1.0065    2.1194 C.ar    1  UNL11      -0.0597
      7 C           1.8306    1.4368    1.6763 C.ar    1  UNL11      -0.0405
      8 C           1.5408    1.2734    0.3164 C.ar    1  UNL11       0.0337
      9 N           0.3019    1.7695   -0.1615 N.am    1  UNL11      -0.2852
     10 C          -0.6804    0.9277   -0.7694 C.2     1  UNL11       0.2232
     11 O          -0.3789   -0.2829   -0.8551 O.2     1  UNL11      -0.2751
     12 C          -1.9682    1.4910   -1.2582 C.3     1  UNL11       0.0728
     13 C          -1.8055    2.8890   -1.6824 C.2     1  UNL11       0.1237
     14 N          -1.9953    3.8890   -0.7838 N.2     1  UNL11      -0.0071
     15 N          -1.9148    5.1688   -1.0488 N.am    1  UNL11      -0.0356
     16 C          -1.6188    5.5526   -2.3174 C.2     1  UNL11       0.4383
     17 O          -1.5237    6.7557   -2.6560 O.2     1  UNL11      -0.2116
     18 C          -1.4153    4.5764   -3.2662 C.ar    1  UNL11       0.1004
     19 C          -1.0904    4.9442   -4.5816 C.ar    1  UNL11      -0.0441
     20 C          -0.8675    3.9876   -5.5347 C.ar    1  UNL11      -0.0608
     21 C          -0.9519    2.6472   -5.2451 C.ar    1  UNL11      -0.0611
     22 C          -1.2723    2.2631   -3.9531 C.ar    1  UNL11      -0.0518
     23 C          -1.5030    3.2332   -2.9740 C.ar    1  UNL11       0.0194
     24 C           2.4720    0.6966   -0.5131 C.ar    1  UNL11      -0.0370
     25 H           4.9690    1.6830   -1.6350 H       1  UNL11       0.0235
     26 H           4.3128    0.5863   -2.8954 H       1  UNL11       0.0235
     27 H           6.1107    0.5594   -2.4208 H       1  UNL11       0.0235
     28 H           5.6745   -0.5581   -0.4605 H       1  UNL11       0.0343
     29 H           5.1643   -2.2719   -1.8686 H       1  UNL11       0.0235
     30 H           3.6859   -2.2087   -0.8443 H       1  UNL11       0.0235
     31 H           3.6849   -1.4817   -2.5324 H       1  UNL11       0.0235
     32 H           4.9377    0.0960    1.6227 H       1  UNL11       0.0620
     33 H           3.3291    1.1048    3.1506 H       1  UNL11       0.0618
     34 H           1.0782    1.8968    2.3338 H       1  UNL11       0.0636
     35 H           0.0413    2.7869   -0.0909 H       1  UNL11       0.1548
     36 H          -2.6975    1.4101   -0.4345 H       1  UNL11       0.0425
     37 H          -2.2945    0.8455   -2.1319 H       1  UNL11       0.0425
     38 H          -2.0650    5.9146   -0.3303 H       1  UNL11       0.4829
     39 H          -1.0234    6.0128   -4.8175 H       1  UNL11       0.0627
     40 H          -0.6190    4.2518   -6.5532 H       1  UNL11       0.0618
     41 H          -0.7750    1.8660   -5.9996 H       1  UNL11       0.0618
     42 H          -1.3243    1.2114   -3.7039 H       1  UNL11       0.0624
     43 H           2.2593    0.5679   -1.5761 H       1  UNL11       0.0639
@<TRIPOS>BOND
     1     1     2    1
     2     1    25    1
     3     1    26    1
     4     1    27    1
     5     2     3    1
     6     2     4    1
     7     2    28    1
     8     3    29    1
     9     3    30    1
    10     3    31    1
    11     4     5   ar
    12     5     6   ar
    13     5    32    1
    14     6     7   ar
    15     6    33    1
    16     7     8   ar
    17     7    34    1
    18     8     9    1
    19     8    24   ar
    20     9    10   am
    21     9    35    1
    22    10    11    2
    23    10    12    1
    24    12    13    1
    25    12    36    1
    26    12    37    1
    27    13    14    2
    28    14    15    1
    29    15    16   am
    30    15    38    1
    31    16    17    2
    32    16    18    1
    33    18    19   ar
    34    19    20   ar
    35    19    39    1
    36    20    21   ar
    37    20    40    1
    38    21    22   ar
    39    21    41    1
    40    22    23   ar
    41    22    42    1
    42    23    13    1
    43    23    18   ar
    44    24     4   ar
    45    24    43    1
@<TRIPOS>MOLECULE
*****
 43 45 0 0 0
SMALL
GASTEIGER

@<TRIPOS>ATOM
      1 C           4.8069    1.3629   -2.2327 C.3     1  UNL11      -0.0586
      2 C           5.1318    0.8426   -0.8281 C.3     1  UNL11      -0.0215
      3 C           5.7923   -0.5205   -0.9152 C.3     1  UNL11      -0.0586
      4 C           3.9033    0.8260    0.0061 C.ar    1  UNL11      -0.0430
      5 C           3.9434    0.4082    1.3234 C.ar    1  UNL11      -0.0582
      6 C           2.8161    0.4212    2.1184 C.ar    1  UNL11      -0.0597
      7 C           1.6049    0.8458    1.6480 C.ar    1  UNL11      -0.0405
      8 C           1.5408    1.2734    0.3164 C.ar    1  UNL11       0.0337
      9 N           0.3019    1.7695   -0.1615 N.am    1  UNL11      -0.2852
     10 C          -0.6804    0.9277   -0.7694 C.2     1  UNL11       0.2232
     11 O          -0.3789   -0.2829   -0.8551 O.2     1  UNL11      -0.2751
     12 C          -1.9682    1.4910   -1.2582 C.3     1  UNL11       0.0728
     13 C          -2.4760    0.7274   -2.4071 C.2     1  UNL11       0.1237
     14 N          -3.2187    1.3555   -3.3544 N.2     1  UNL11      -0.0071
     15 N          -3.7544    0.7784   -4.4006 N.am    1  UNL11      -0.0356
     16 C          -3.5666   -0.5553   -4.5746 C.2     1  UNL11       0.4383
     17 O          -4.0449   -1.1851   -5.5470 O.2     1  UNL11      -0.2116
     18 C          -2.8189   -1.2384   -3.6425 C.ar    1  UNL11       0.1004
     19 C          -2.5936   -2.6144   -3.8068 C.ar    1  UNL11      -0.0441
     20 C          -1.8384   -3.3071   -2.8996 C.ar    1  UNL11      -0.0608
     21 C          -1.2785   -2.6910   -1.8067 C.ar    1  UNL11      -0.0611
     22 C          -1.4896   -1.3337   -1.6256 C.ar    1  UNL11      -0.0518
     23 C          -2.2607   -0.6189   -2.5461 C.ar    1  UNL11       0.0194
     24 C           2.6741    1.2522   -0.4602 C.ar    1  UNL11      -0.0370
     25 H           3.9746    2.0953   -2.0993 H       1  UNL11       0.0235
     26 H           4.4115    0.5174   -2.8349 H       1  UNL11       0.0235
     27 H           5.6525    1.8926   -2.6710 H       1  UNL11       0.0235
     28 H           5.9088    1.5210   -0.4175 H       1  UNL11       0.0343
     29 H           6.8955   -0.4047   -1.1236 H       1  UNL11       0.0235
     30 H           5.6922   -1.0397    0.0543 H       1  UNL11       0.0235
     31 H           5.3687   -1.1305   -1.7527 H       1  UNL11       0.0235
     32 H           4.9004    0.0768    1.6994 H       1  UNL11       0.0620
     33 H           2.9274    0.0817    3.1300 H       1  UNL11       0.0618
     34 H           0.6922    0.8633    2.2617 H       1  UNL11       0.0636
     35 H           0.0413    2.7869   -0.0909 H       1  UNL11       0.1548
     36 H          -1.7848    2.5435   -1.5330 H       1  UNL11       0.0425
     37 H          -2.6970    1.4363   -0.3908 H       1  UNL11       0.0425
     38 H          -4.3205    1.2939   -5.1139 H       1  UNL11       0.4829
     39 H          -3.0398   -3.1104   -4.6767 H       1  UNL11       0.0627
     40 H          -1.6565   -4.3673   -3.0082 H       1  UNL11       0.0618
     41 H          -0.6685   -3.2334   -1.0689 H       1  UNL11       0.0618
     42 H          -1.0401   -0.8294   -0.7803 H       1  UNL11       0.0624
     43 H           2.6377    1.5874   -1.4985 H       1  UNL11       0.0639
@<TRIPOS>BOND
     1     1     2    1
     2     1    25    1
     3     1    26    1
     4     1    27    1
     5     2     3    1
     6     2     4    1
     7     2    28    1
     8     3    29    1
     9     3    30    1
    10     3    31    1
    11     4     5   ar
    12     5     6   ar
    13     5    32    1
    14     6     7   ar
    15     6    33    1
    16     7     8   ar
    17     7    34    1
    18     8     9    1
    19     8    24   ar
    20     9    10   am
    21     9    35    1
    22    10    11    2
    23    10    12    1
    24    12    13    1
    25    12    36    1
    26    12    37    1
    27    13    14    2
    28    14    15    1
    29    15    16   am
    30    15    38    1
    31    16    17    2
    32    16    18    1
    33    18    19   ar
    34    19    20   ar
    35    19    39    1
    36    20    21   ar
    37    20    40    1
    38    21    22   ar
    39    21    41    1
    40    22    23   ar
    41    22    42    1
    42    23    13    1
    43    23    18   ar
    44    24     4   ar
    45    24    43    1
@<TRIPOS>MOLECULE
*****
 43 45 0 0 0
SMALL
GASTEIGER

@<TRIPOS>ATOM
      1 C           1.6390   -2.2409    2.5905 C.3     1  UNL11      -0.0586
      2 C           2.8935   -1.3651    2.6827 C.3     1  UNL11      -0.0215
      3 C           3.0764   -0.8613    4.1021 C.3     1  UNL11      -0.0586
      4 C           2.8174   -0.2602    1.6934 C.ar    1  UNL11      -0.0430
      5 C           3.9629    0.2677    1.1269 C.ar    1  UNL11      -0.0582
      6 C           3.9034    1.2701    0.1812 C.ar    1  UNL11      -0.0597
      7 C           2.7139    1.7928   -0.2440 C.ar    1  UNL11      -0.0405
      8 C           1.5408    1.2734    0.3164 C.ar    1  UNL11       0.0337
      9 N           0.3019    1.7695   -0.1615 N.am    1  UNL11      -0.2852
     10 C          -0.6804    0.9277   -0.7694 C.2     1  UNL11       0.2232
     11 O          -1.7214    1.5019   -1.1573 O.2     1  UNL11      -0.2751
     12 C          -0.4453   -0.5347   -0.9139 C.3     1  UNL11       0.0728
     13 C           0.2064   -0.8403   -2.1956 C.2     1  UNL11       0.1237
     14 N          -0.4134   -1.6577   -3.0851 N.2     1  UNL11      -0.0071
     15 N           0.0795   -2.0312   -4.2393 N.am    1  UNL11      -0.0356
     16 C           1.3082   -1.5779   -4.5988 C.2     1  UNL11       0.4383
     17 O           1.8530   -1.8874   -5.6843 O.2     1  UNL11      -0.2116
     18 C           1.9779   -0.7443   -3.7321 C.ar    1  UNL11       0.1004
     19 C           3.2420   -0.2464   -4.0858 C.ar    1  UNL11      -0.0441
     20 C           3.9157    0.5975   -3.2448 C.ar    1  UNL11      -0.0608
     21 C           3.3879    0.9852   -2.0370 C.ar    1  UNL11      -0.0611
     22 C           2.1419    0.5044   -1.6686 C.ar    1  UNL11      -0.0518
     23 C           1.4477   -0.3590   -2.5205 C.ar    1  UNL11       0.0194
     24 C           1.6204    0.2757    1.2578 C.ar    1  UNL11      -0.0370
     25 H           1.3234   -2.2061    1.5200 H       1  UNL11       0.0235
     26 H           0.8350   -1.7625    3.1893 H       1  UNL11       0.0235
     27 H           1.8539   -3.2791    2.8430 H       1  UNL11       0.0235
     28 H           3.7566   -2.0377    2.4952 H       1  UNL11       0.0343
     29 H           3.5844   -1.6488    4.7311 H       1  UNL11       0.0235
     30 H           3.7310    0.0281    4.0946 H       1  UNL11       0.0235
     31 H           2.0936   -0.6430    4.5914 H       1  UNL11       0.0235
     32 H           4.9042   -0.1470    1.4573 H       1  UNL11       0.0620
     33 H           4.8354    1.6277   -0.2116 H       1  UNL11       0.0618
     34 H           2.6412    2.5934   -0.9948 H       1  UNL11       0.0636
     35 H           0.0413    2.7869   -0.0909 H       1  UNL11       0.1548
     36 H          -1.4255   -1.0353   -0.8395 H       1  UNL11       0.0425
     37 H           0.2170   -0.8447   -0.0470 H       1  UNL11       0.0425
     38 H          -0.4272   -2.6617   -4.9031 H       1  UNL11       0.4829
     39 H           3.6676   -0.5544   -5.0481 H       1  UNL11       0.0627
     40 H           4.8910    0.9886   -3.4990 H       1  UNL11       0.0618
     41 H           3.9163    1.6633   -1.3502 H       1  UNL11       0.0618
     42 H           1.7038    0.8149   -0.7293 H       1  UNL11       0.0624
     43 H           0.7125   -0.1404    1.6986 H       1  UNL11       0.0639
@<TRIPOS>BOND
     1     1     2    1
     2     1    25    1
     3     1    26    1
     4     1    27    1
     5     2     3    1
     6     2     4    1
     7     2    28    1
     8     3    29    1
     9     3    30    1
    10     3    31    1
    11     4     5   ar
    12     5     6   ar
    13     5    32    1
    14     6     7   ar
    15     6    33    1
    16     7     8   ar
    17     7    34    1
    18     8     9    1
    19     8    24   ar
    20     9    10   am
    21     9    35    1
    22    10    11    2
    23    10    12    1
    24    12    13    1
    25    12    36    1
    26    12    37    1
    27    13    14    2
    28    14    15    1
    29    15    16   am
    30    15    38    1
    31    16    17    2
    32    16    18    1
    33    18    19   ar
    34    19    20   ar
    35    19    39    1
    36    20    21   ar
    37    20    40    1
    38    21    22   ar
    39    21    41    1
    40    22    23   ar
    41    22    42    1
    42    23    13    1
    43    23    18   ar
    44    24     4   ar
    45    24    43    1
@<TRIPOS>MOLECULE
*****
 43 45 0 0 0
SMALL
GASTEIGER

@<TRIPOS>ATOM
      1 C           3.3534    2.3281    4.0951 C.3     1  UNL11      -0.0586
      2 C           4.2285    2.1320    2.8521 C.3     1  UNL11      -0.0215
      3 C           4.7808    3.4659    2.3857 C.3     1  UNL11      -0.0586
      4 C           3.4581    1.4342    1.7915 C.ar    1  UNL11      -0.0430
      5 C           3.8783    0.2154    1.2920 C.ar    1  UNL11      -0.0582
      6 C           3.1529   -0.4589    0.3317 C.ar    1  UNL11      -0.0597
      7 C           1.9854    0.0401   -0.1749 C.ar    1  UNL11      -0.0405
      8 C           1.5408    1.2734    0.3164 C.ar    1  UNL11       0.0337
      9 N           0.3019    1.7695   -0.1615 N.am    1  UNL11      -0.2852
     10 C          -0.6804    0.9277   -0.7694 C.2     1  UNL11       0.2232
     11 O          -1.7214    1.5019   -1.1573 O.2     1  UNL11      -0.2751
     12 C          -0.4453   -0.5347   -0.9139 C.3     1  UNL11       0.0728
     13 C           0.4188   -1.0392    0.1628 C.2     1  UNL11       0.1237
     14 N           1.7654   -1.0576   -0.0108 N.2     1  UNL11      -0.0071
     15 N           2.6333   -1.5144    0.8567 N.am    1  UNL11      -0.0356
     16 C           2.1748   -2.0156    2.0327 C.2     1  UNL11       0.4383
     17 O           2.9367   -2.4733    2.9165 O.2     1  UNL11      -0.2116
     18 C           0.8170   -2.0180    2.2584 C.ar    1  UNL11       0.1004
     19 C           0.3164   -2.5138    3.4728 C.ar    1  UNL11      -0.0441
     20 C          -1.0293   -2.5085    3.7224 C.ar    1  UNL11      -0.0608
     21 C          -1.9312   -2.0242    2.8061 C.ar    1  UNL11      -0.0611
     22 C          -1.4578   -1.5313    1.6009 C.ar    1  UNL11      -0.0518
     23 C          -0.0854   -1.5343    1.3371 C.ar    1  UNL11       0.0194
     24 C           2.2775    1.9306    1.2721 C.ar    1  UNL11      -0.0370
     25 H           2.6586    1.4543    4.1172 H       1  UNL11       0.0235
     26 H           2.7360    3.2394    3.9466 H       1  UNL11       0.0235
     27 H           3.9448    2.3093    5.0104 H       1  UNL11       0.0235
     28 H           5.1119    1.5467    3.1832 H       1  UNL11       0.0343
     29 H           5.6984    3.7369    2.9845 H       1  UNL11       0.0235
     30 H           5.0884    3.3864    1.3281 H       1  UNL11       0.0235
     31 H           4.0419    4.2930    2.5368 H       1  UNL11       0.0235
     32 H           4.7981   -0.1838    1.6942 H       1  UNL11       0.0620
     33 H           3.5440   -1.3991   -0.0058 H       1  UNL11       0.0618
     34 H           1.3910   -0.4778   -0.9420 H       1  UNL11       0.0636
     35 H           0.0413    2.7869   -0.0909 H       1  UNL11       0.1548
     36 H           0.0175   -0.6984   -1.9018 H       1  UNL11       0.0425
     37 H          -1.4634   -1.0331   -0.8735 H       1  UNL11       0.0425
     38 H           3.6666   -1.5114    0.6913 H       1  UNL11       0.4829
     39 H           1.0324   -2.9027    4.2063 H       1  UNL11       0.0627
     40 H          -1.4333   -2.8886    4.6505 H       1  UNL11       0.0618
     41 H          -3.0157   -2.0123    2.9918 H       1  UNL11       0.0618
     42 H          -2.1531   -1.1289    0.8762 H       1  UNL11       0.0624
     43 H           1.9388    2.8906    1.6661 H       1  UNL11       0.0639
@<TRIPOS>BOND
     1     1     2    1
     2     1    25    1
     3     1    26    1
     4     1    27    1
     5     2     3    1
     6     2     4    1
     7     2    28    1
     8     3    29    1
     9     3    30    1
    10     3    31    1
    11     4     5   ar
    12     5     6   ar
    13     5    32    1
    14     6     7   ar
    15     6    33    1
    16     7     8   ar
    17     7    34    1
    18     8     9    1
    19     8    24   ar
    20     9    10   am
    21     9    35    1
    22    10    11    2
    23    10    12    1
    24    12    13    1
    25    12    36    1
    26    12    37    1
    27    13    14    2
    28    14    15    1
    29    15    16   am
    30    15    38    1
    31    16    17    2
    32    16    18    1
    33    18    19   ar
    34    19    20   ar
    35    19    39    1
    36    20    21   ar
    37    20    40    1
    38    21    22   ar
    39    21    41    1
    40    22    23   ar
    41    22    42    1
    42    23    13    1
    43    23    18   ar
    44    24     4   ar
    45    24    43    1
@<TRIPOS>MOLECULE
*****
 43 45 0 0 0
SMALL
GASTEIGER

@<TRIPOS>ATOM
      1 C           6.3304    0.3506   -0.0091 C.3     1  UNL11      -0.0586
      2 C           5.1318    0.8426   -0.8281 C.3     1  UNL11      -0.0215
      3 C           5.4217    2.2148   -1.4067 C.3     1  UNL11      -0.0586
      4 C           3.9033    0.8260    0.0061 C.ar    1  UNL11      -0.0430
      5 C           3.9434    0.4082    1.3234 C.ar    1  UNL11      -0.0582
      6 C           2.8161    0.4212    2.1184 C.ar    1  UNL11      -0.0597
      7 C           1.6049    0.8458    1.6480 C.ar    1  UNL11      -0.0405
      8 C           1.5408    1.2734    0.3164 C.ar    1  UNL11       0.0337
      9 N           0.3019    1.7695   -0.1615 N.am    1  UNL11      -0.2852
     10 C          -0.6804    0.9277   -0.7694 C.2     1  UNL11       0.2232
     11 O          -1.7214    1.5019   -1.1573 O.2     1  UNL11      -0.2751
     12 C          -0.4453   -0.5347   -0.9139 C.3     1  UNL11       0.0728
     13 C          -0.2643   -1.1723    0.3981 C.2     1  UNL11       0.1237
     14 N           0.7446   -0.7628    1.2093 N.2     1  UNL11      -0.0071
     15 N           1.0283   -1.2752    2.3804 N.am    1  UNL11      -0.0356
     16 C           0.2668   -2.3000    2.8434 C.2     1  UNL11       0.4383
     17 O           0.4707   -2.8477    3.9522 O.2     1  UNL11      -0.2116
     18 C          -0.7704   -2.7513    2.0591 C.ar    1  UNL11       0.1004
     19 C          -1.5849   -3.7975    2.5205 C.ar    1  UNL11      -0.0441
     20 C          -2.6316   -4.2482    1.7625 C.ar    1  UNL11      -0.0608
     21 C          -2.9222   -3.7014    0.5361 C.ar    1  UNL11      -0.0611
     22 C          -2.1299   -2.6684    0.0619 C.ar    1  UNL11      -0.0518
     23 C          -1.0582   -2.2031    0.8286 C.ar    1  UNL11       0.0194
     24 C           2.6741    1.2522   -0.4602 C.ar    1  UNL11      -0.0370
     25 H           5.9181   -0.3942    0.7135 H       1  UNL11       0.0235
     26 H           6.7227    1.2050    0.5825 H       1  UNL11       0.0235
     27 H           7.0628   -0.1592   -0.6346 H       1  UNL11       0.0235
     28 H           5.0540    0.1641   -1.7034 H       1  UNL11       0.0343
     29 H           6.0251    2.1165   -2.3555 H       1  UNL11       0.0235
     30 H           4.4708    2.7107   -1.6701 H       1  UNL11       0.0235
     31 H           6.0282    2.8388   -0.7026 H       1  UNL11       0.0235
     32 H           4.9004    0.0768    1.6994 H       1  UNL11       0.0620
     33 H           2.9274    0.0817    3.1300 H       1  UNL11       0.0618
     34 H           0.6922    0.8633    2.2617 H       1  UNL11       0.0636
     35 H           0.0413    2.7869   -0.0909 H       1  UNL11       0.1548
     36 H           0.4513   -0.6641   -1.5435 H       1  UNL11       0.0425
     37 H          -1.3555   -0.9597   -1.4406 H       1  UNL11       0.0425
     38 H           1.8134   -0.9333    2.9820 H       1  UNL11       0.4829
     39 H          -1.3557   -4.2378    3.4981 H       1  UNL11       0.0627
     40 H          -3.2678   -5.0544    2.1001 H       1  UNL11       0.0618
     41 H          -3.7602   -4.0518   -0.0850 H       1  UNL11       0.0618
     42 H          -2.3566   -2.2142   -0.8936 H       1  UNL11       0.0624
     43 H           2.6377    1.5874   -1.4985 H       1  UNL11       0.0639
@<TRIPOS>BOND
     1     1     2    1
     2     1    25    1
     3     1    26    1
     4     1    27    1
     5     2     3    1
     6     2     4    1
     7     2    28    1
     8     3    29    1
     9     3    30    1
    10     3    31    1
    11     4     5   ar
    12     5     6   ar
    13     5    32    1
    14     6     7   ar
    15     6    33    1
    16     7     8   ar
    17     7    34    1
    18     8     9    1
    19     8    24   ar
    20     9    10   am
    21     9    35    1
    22    10    11    2
    23    10    12    1
    24    12    13    1
    25    12    36    1
    26    12    37    1
    27    13    14    2
    28    14    15    1
    29    15    16   am
    30    15    38    1
    31    16    17    2
    32    16    18    1
    33    18    19   ar
    34    19    20   ar
    35    19    39    1
    36    20    21   ar
    37    20    40    1
    38    21    22   ar
    39    21    41    1
    40    22    23   ar
    41    22    42    1
    42    23    13    1
    43    23    18   ar
    44    24     4   ar
    45    24    43    1
@<TRIPOS>MOLECULE
*****
 43 45 0 0 0
SMALL
GASTEIGER

@<TRIPOS>ATOM
      1 C           4.8069    1.3629   -2.2327 C.3     1  UNL11      -0.0586
      2 C           5.1318    0.8426   -0.8281 C.3     1  UNL11      -0.0215
      3 C           5.7923   -0.5205   -0.9152 C.3     1  UNL11      -0.0586
      4 C           3.9033    0.8260    0.0061 C.ar    1  UNL11      -0.0430
      5 C           3.9434    0.4082    1.3234 C.ar    1  UNL11      -0.0582
      6 C           2.8161    0.4212    2.1184 C.ar    1  UNL11      -0.0597
      7 C           1.6049    0.8458    1.6480 C.ar    1  UNL11      -0.0405
      8 C           1.5408    1.2734    0.3164 C.ar    1  UNL11       0.0337
      9 N           0.3019    1.7695   -0.1615 N.am    1  UNL11      -0.2852
     10 C          -0.6804    0.9277   -0.7694 C.2     1  UNL11       0.2232
     11 O          -0.3789   -0.2829   -0.8551 O.2     1  UNL11      -0.2751
     12 C          -1.9682    1.4910   -1.2582 C.3     1  UNL11       0.0728
     13 C          -1.7403    2.5002   -2.3024 C.2     1  UNL11       0.1237
     14 N          -0.9942    3.5993   -2.0214 N.2     1  UNL11      -0.0071
     15 N          -0.7514    4.5810   -2.8532 N.am    1  UNL11      -0.0356
     16 C          -1.2768    4.5183   -4.1040 C.2     1  UNL11       0.4383
     17 O          -1.0942    5.4148   -4.9607 O.2     1  UNL11      -0.2116
     18 C          -2.0398    3.4229   -4.4395 C.ar    1  UNL11       0.1004
     19 C          -2.5806    3.3233   -5.7312 C.ar    1  UNL11      -0.0441
     20 C          -3.3274    2.2334   -6.0888 C.ar    1  UNL11      -0.0608
     21 C          -3.5738    1.2076   -5.2088 C.ar    1  UNL11      -0.0611
     22 C          -3.0499    1.2869   -3.9286 C.ar    1  UNL11      -0.0518
     23 C          -2.2876    2.3968   -3.5546 C.ar    1  UNL11       0.0194
     24 C           2.6741    1.2522   -0.4602 C.ar    1  UNL11      -0.0370
     25 H           3.9746    2.0953   -2.0993 H       1  UNL11       0.0235
     26 H           4.4115    0.5174   -2.8349 H       1  UNL11       0.0235
     27 H           5.6525    1.8926   -2.6710 H       1  UNL11       0.0235
     28 H           5.9088    1.5210   -0.4175 H       1  UNL11       0.0343
     29 H           6.8955   -0.4047   -1.1236 H       1  UNL11       0.0235
     30 H           5.6922   -1.0397    0.0543 H       1  UNL11       0.0235
     31 H           5.3687   -1.1305   -1.7527 H       1  UNL11       0.0235
     32 H           4.9004    0.0768    1.6994 H       1  UNL11       0.0620
     33 H           2.9274    0.0817    3.1300 H       1  UNL11       0.0618
     34 H           0.6922    0.8633    2.2617 H       1  UNL11       0.0636
     35 H           0.0413    2.7869   -0.0909 H       1  UNL11       0.1548
     36 H          -2.4867    1.9310   -0.3896 H       1  UNL11       0.0425
     37 H          -2.5681    0.6209   -1.6701 H       1  UNL11       0.0425
     38 H          -0.1691    5.4140   -2.6042 H       1  UNL11       0.4829
     39 H          -2.3877    4.1404   -6.4363 H       1  UNL11       0.0627
     40 H          -3.7541    2.1407   -7.0778 H       1  UNL11       0.0618
     41 H          -4.1714    0.3246   -5.4808 H       1  UNL11       0.0618
     42 H          -3.2188    0.4787   -3.2293 H       1  UNL11       0.0624
     43 H           2.6377    1.5874   -1.4985 H       1  UNL11       0.0639
@<TRIPOS>BOND
     1     1     2    1
     2     1    25    1
     3     1    26    1
     4     1    27    1
     5     2     3    1
     6     2     4    1
     7     2    28    1
     8     3    29    1
     9     3    30    1
    10     3    31    1
    11     4     5   ar
    12     5     6   ar
    13     5    32    1
    14     6     7   ar
    15     6    33    1
    16     7     8   ar
    17     7    34    1
    18     8     9    1
    19     8    24   ar
    20     9    10   am
    21     9    35    1
    22    10    11    2
    23    10    12    1
    24    12    13    1
    25    12    36    1
    26    12    37    1
    27    13    14    2
    28    14    15    1
    29    15    16   am
    30    15    38    1
    31    16    17    2
    32    16    18    1
    33    18    19   ar
    34    19    20   ar
    35    19    39    1
    36    20    21   ar
    37    20    40    1
    38    21    22   ar
    39    21    41    1
    40    22    23   ar
    41    22    42    1
    42    23    13    1
    43    23    18   ar
    44    24     4   ar
    45    24    43    1
@<TRIPOS>MOLECULE
*****
 43 45 0 0 0
SMALL
GASTEIGER

@<TRIPOS>ATOM
      1 C           3.3534    2.3281    4.0951 C.3     1  UNL11      -0.0586
      2 C           4.2285    2.1320    2.8521 C.3     1  UNL11      -0.0215
      3 C           4.7808    3.4659    2.3857 C.3     1  UNL11      -0.0586
      4 C           3.4581    1.4342    1.7915 C.ar    1  UNL11      -0.0430
      5 C           3.8783    0.2154    1.2920 C.ar    1  UNL11      -0.0582
      6 C           3.1529   -0.4589    0.3317 C.ar    1  UNL11      -0.0597
      7 C           1.9854    0.0401   -0.1749 C.ar    1  UNL11      -0.0405
      8 C           1.5408    1.2734    0.3164 C.ar    1  UNL11       0.0337
      9 N           0.3019    1.7695   -0.1615 N.am    1  UNL11      -0.2852
     10 C          -0.6804    0.9277   -0.7694 C.2     1  UNL11       0.2232
     11 O          -0.3789   -0.2829   -0.8551 O.2     1  UNL11      -0.2751
     12 C          -1.9682    1.4910   -1.2582 C.3     1  UNL11       0.0728
     13 C          -2.4760    0.7274   -2.4071 C.2     1  UNL11       0.1237
     14 N          -3.6875    0.1198   -2.3259 N.2     1  UNL11      -0.0071
     15 N          -4.2292   -0.6147   -3.2648 N.am    1  UNL11      -0.0356
     16 C          -3.5439   -0.7988   -4.4228 C.2     1  UNL11       0.4383
     17 O          -3.9891   -1.4875   -5.3708 O.2     1  UNL11      -0.2116
     18 C          -2.3108   -0.2019   -4.5558 C.ar    1  UNL11       0.1004
     19 C          -1.5882   -0.3607   -5.7490 C.ar    1  UNL11      -0.0441
     20 C          -0.3681    0.2394   -5.9064 C.ar    1  UNL11      -0.0608
     21 C           0.1899    1.0104   -4.9157 C.ar    1  UNL11      -0.0611
     22 C          -0.5066    1.1789   -3.7299 C.ar    1  UNL11      -0.0518
     23 C          -1.7523    0.5686   -3.5600 C.ar    1  UNL11       0.0194
     24 C           2.2775    1.9306    1.2721 C.ar    1  UNL11      -0.0370
     25 H           2.6586    1.4543    4.1172 H       1  UNL11       0.0235
     26 H           2.7360    3.2394    3.9466 H       1  UNL11       0.0235
     27 H           3.9448    2.3093    5.0104 H       1  UNL11       0.0235
     28 H           5.1119    1.5467    3.1832 H       1  UNL11       0.0343
     29 H           5.6984    3.7369    2.9845 H       1  UNL11       0.0235
     30 H           5.0884    3.3864    1.3281 H       1  UNL11       0.0235
     31 H           4.0419    4.2930    2.5368 H       1  UNL11       0.0235
     32 H           4.7981   -0.1838    1.6942 H       1  UNL11       0.0620
     33 H           3.5440   -1.3991   -0.0058 H       1  UNL11       0.0618
     34 H           1.3910   -0.4778   -0.9420 H       1  UNL11       0.0636
     35 H           0.0413    2.7869   -0.0909 H       1  UNL11       0.1548
     36 H          -1.7848    2.5435   -1.5330 H       1  UNL11       0.0425
     37 H          -2.6970    1.4363   -0.3908 H       1  UNL11       0.0425
     38 H          -5.1678   -1.0676   -3.1700 H       1  UNL11       0.4829
     39 H          -2.0290   -0.9764   -6.5418 H       1  UNL11       0.0627
     40 H           0.2039    0.1262   -6.8169 H       1  UNL11       0.0618
     41 H           1.1690    1.4999   -5.0269 H       1  UNL11       0.0618
     42 H          -0.0898    1.7984   -2.9468 H       1  UNL11       0.0624
     43 H           1.9388    2.8906    1.6661 H       1  UNL11       0.0639
@<TRIPOS>BOND
     1     1     2    1
     2     1    25    1
     3     1    26    1
     4     1    27    1
     5     2     3    1
     6     2     4    1
     7     2    28    1
     8     3    29    1
     9     3    30    1
    10     3    31    1
    11     4     5   ar
    12     5     6   ar
    13     5    32    1
    14     6     7   ar
    15     6    33    1
    16     7     8   ar
    17     7    34    1
    18     8     9    1
    19     8    24   ar
    20     9    10   am
    21     9    35    1
    22    10    11    2
    23    10    12    1
    24    12    13    1
    25    12    36    1
    26    12    37    1
    27    13    14    2
    28    14    15    1
    29    15    16   am
    30    15    38    1
    31    16    17    2
    32    16    18    1
    33    18    19   ar
    34    19    20   ar
    35    19    39    1
    36    20    21   ar
    37    20    40    1
    38    21    22   ar
    39    21    41    1
    40    22    23   ar
    41    22    42    1
    42    23    13    1
    43    23    18   ar
    44    24     4   ar
    45    24    43    1
@<TRIPOS>MOLECULE
*****
 43 45 0 0 0
SMALL
GASTEIGER

@<TRIPOS>ATOM
      1 C           4.8069    1.3629   -2.2327 C.3     1  UNL11      -0.0586
      2 C           5.1318    0.8426   -0.8281 C.3     1  UNL11      -0.0215
      3 C           5.7923   -0.5205   -0.9152 C.3     1  UNL11      -0.0586
      4 C           3.9033    0.8260    0.0061 C.ar    1  UNL11      -0.0430
      5 C           3.9434    0.4082    1.3234 C.ar    1  UNL11      -0.0582
      6 C           2.8161    0.4212    2.1184 C.ar    1  UNL11      -0.0597
      7 C           1.6049    0.8458    1.6480 C.ar    1  UNL11      -0.0405
      8 C           1.5408    1.2734    0.3164 C.ar    1  UNL11       0.0337
      9 N           0.3019    1.7695   -0.1615 N.am    1  UNL11      -0.2852
     10 C          -0.6804    0.9277   -0.7694 C.2     1  UNL11       0.2232
     11 O          -0.3789   -0.2829   -0.8551 O.2     1  UNL11      -0.2751
     12 C          -1.9682    1.4910   -1.2582 C.3     1  UNL11       0.0728
     13 C          -1.7403    2.5002   -2.3024 C.2     1  UNL11       0.1237
     14 N          -1.6983    2.1198   -3.6051 N.2     1  UNL11      -0.0071
     15 N          -1.4679    2.9166   -4.6183 N.am    1  UNL11      -0.0356
     16 C          -1.2503    4.2344   -4.3725 C.2     1  UNL11       0.4383
     17 O          -1.0215    5.0642   -5.2837 O.2     1  UNL11      -0.2116
     18 C          -1.2841    4.6715   -3.0678 C.ar    1  UNL11       0.1004
     19 C          -1.0802    6.0316   -2.7860 C.ar    1  UNL11      -0.0441
     20 C          -1.1273    6.4879   -1.4965 C.ar    1  UNL11      -0.0608
     21 C          -1.3726    5.6434   -0.4409 C.ar    1  UNL11      -0.0611
     22 C          -1.5755    4.2971   -0.6973 C.ar    1  UNL11      -0.0518
     23 C          -1.5277    3.8224   -2.0109 C.ar    1  UNL11       0.0194
     24 C           2.6741    1.2522   -0.4602 C.ar    1  UNL11      -0.0370
     25 H           3.9746    2.0953   -2.0993 H       1  UNL11       0.0235
     26 H           4.4115    0.5174   -2.8349 H       1  UNL11       0.0235
     27 H           5.6525    1.8926   -2.6710 H       1  UNL11       0.0235
     28 H           5.9088    1.5210   -0.4175 H       1  UNL11       0.0343
     29 H           6.8955   -0.4047   -1.1236 H       1  UNL11       0.0235
     30 H           5.6922   -1.0397    0.0543 H       1  UNL11       0.0235
     31 H           5.3687   -1.1305   -1.7527 H       1  UNL11       0.0235
     32 H           4.9004    0.0768    1.6994 H       1  UNL11       0.0620
     33 H           2.9274    0.0817    3.1300 H       1  UNL11       0.0618
     34 H           0.6922    0.8633    2.2617 H       1  UNL11       0.0636
     35 H           0.0413    2.7869   -0.0909 H       1  UNL11       0.1548
     36 H          -2.4867    1.9310   -0.3896 H       1  UNL11       0.0425
     37 H          -2.5681    0.6209   -1.6701 H       1  UNL11       0.0425
     38 H          -1.4448    2.5900   -5.6121 H       1  UNL11       0.4829
     39 H          -0.8826    6.7089   -3.6253 H       1  UNL11       0.0627
     40 H          -0.9701    7.5311   -1.2602 H       1  UNL11       0.0618
     41 H          -1.4143    5.9945    0.6010 H       1  UNL11       0.0618
     42 H          -1.7886    3.6218    0.1208 H       1  UNL11       0.0624
     43 H           2.6377    1.5874   -1.4985 H       1  UNL11       0.0639
@<TRIPOS>BOND
     1     1     2    1
     2     1    25    1
     3     1    26    1
     4     1    27    1
     5     2     3    1
     6     2     4    1
     7     2    28    1
     8     3    29    1
     9     3    30    1
    10     3    31    1
    11     4     5   ar
    12     5     6   ar
    13     5    32    1
    14     6     7   ar
    15     6    33    1
    16     7     8   ar
    17     7    34    1
    18     8     9    1
    19     8    24   ar
    20     9    10   am
    21     9    35    1
    22    10    11    2
    23    10    12    1
    24    12    13    1
    25    12    36    1
    26    12    37    1
    27    13    14    2
    28    14    15    1
    29    15    16   am
    30    15    38    1
    31    16    17    2
    32    16    18    1
    33    18    19   ar
    34    19    20   ar
    35    19    39    1
    36    20    21   ar
    37    20    40    1
    38    21    22   ar
    39    21    41    1
    40    22    23   ar
    41    22    42    1
    42    23    13    1
    43    23    18   ar
    44    24     4   ar
    45    24    43    1
@<TRIPOS>MOLECULE
*****
 43 45 0 0 0
SMALL
GASTEIGER

@<TRIPOS>ATOM
      1 C           5.7364    1.9814    2.6078 C.3     1  UNL11      -0.0586
      2 C           4.9433    2.5371    1.4198 C.3     1  UNL11      -0.0215
      3 C           4.4957    3.9577    1.7084 C.3     1  UNL11      -0.0586
      4 C           3.8058    1.6371    1.1008 C.ar    1  UNL11      -0.0430
      5 C           3.8821    0.2790    1.3481 C.ar    1  UNL11      -0.0582
      6 C           2.8198   -0.5618    1.0885 C.ar    1  UNL11      -0.0597
      7 C           1.6405   -0.0989    0.5750 C.ar    1  UNL11      -0.0405
      8 C           1.5408    1.2734    0.3164 C.ar    1  UNL11       0.0337
      9 N           0.3019    1.7695   -0.1615 N.am    1  UNL11      -0.2852
     10 C          -0.6804    0.9277   -0.7694 C.2     1  UNL11       0.2232
     11 O          -1.7214    1.5019   -1.1573 O.2     1  UNL11      -0.2751
     12 C          -0.4453   -0.5347   -0.9139 C.3     1  UNL11       0.0728
     13 C          -1.4738   -1.3073   -0.2027 C.2     1  UNL11       0.1237
     14 N          -2.7772   -1.1779   -0.5606 N.2     1  UNL11      -0.0071
     15 N          -3.7838   -1.7830    0.0183 N.am    1  UNL11      -0.0356
     16 C          -3.5299   -2.6123    1.0634 C.2     1  UNL11       0.4383
     17 O          -4.4346   -3.2289    1.6736 O.2     1  UNL11      -0.2116
     18 C          -2.2238   -2.7794    1.4644 C.ar    1  UNL11       0.1004
     19 C          -1.9305   -3.6444    2.5305 C.ar    1  UNL11      -0.0441
     20 C          -0.6363   -3.8367    2.9323 C.ar    1  UNL11      -0.0608
     21 C           0.4128   -3.1987    2.3159 C.ar    1  UNL11      -0.0611
     22 C           0.1447   -2.3399    1.2622 C.ar    1  UNL11      -0.0518
     23 C          -1.1739   -2.1366    0.8465 C.ar    1  UNL11       0.0194
     24 C           2.6100    2.0949    0.5806 C.ar    1  UNL11      -0.0370
     25 H           5.6492    0.8704    2.5371 H       1  UNL11       0.0235
     26 H           5.2278    2.2953    3.5440 H       1  UNL11       0.0235
     27 H           6.7932    2.2395    2.5418 H       1  UNL11       0.0235
     28 H           5.6620    2.6198    0.5777 H       1  UNL11       0.0343
     29 H           5.3322    4.6815    1.4838 H       1  UNL11       0.0235
     30 H           3.6488    4.2171    1.0489 H       1  UNL11       0.0235
     31 H           4.2322    4.0951    2.7876 H       1  UNL11       0.0235
     32 H           4.8112   -0.0889    1.7588 H       1  UNL11       0.0620
     33 H           2.9558   -1.6033    1.3070 H       1  UNL11       0.0618
     34 H           0.7807   -0.7498    0.3577 H       1  UNL11       0.0636
     35 H           0.0413    2.7869   -0.0909 H       1  UNL11       0.1548
     36 H           0.5591   -0.7488   -0.5111 H       1  UNL11       0.0425
     37 H          -0.4755   -0.7605   -2.0250 H       1  UNL11       0.0425
     38 H          -4.7780   -1.6622   -0.2851 H       1  UNL11       0.4829
     39 H          -2.7648   -4.1545    3.0262 H       1  UNL11       0.0627
     40 H          -0.3915   -4.4967    3.7528 H       1  UNL11       0.0618
     41 H           1.4585   -3.3430    2.6264 H       1  UNL11       0.0618
     42 H           0.9611   -1.8441    0.7538 H       1  UNL11       0.0624
     43 H           2.5428    3.1672    0.3874 H       1  UNL11       0.0639
@<TRIPOS>BOND
     1     1     2    1
     2     1    25    1
     3     1    26    1
     4     1    27    1
     5     2     3    1
     6     2     4    1
     7     2    28    1
     8     3    29    1
     9     3    30    1
    10     3    31    1
    11     4     5   ar
    12     5     6   ar
    13     5    32    1
    14     6     7   ar
    15     6    33    1
    16     7     8   ar
    17     7    34    1
    18     8     9    1
    19     8    24   ar
    20     9    10   am
    21     9    35    1
    22    10    11    2
    23    10    12    1
    24    12    13    1
    25    12    36    1
    26    12    37    1
    27    13    14    2
    28    14    15    1
    29    15    16   am
    30    15    38    1
    31    16    17    2
    32    16    18    1
    33    18    19   ar
    34    19    20   ar
    35    19    39    1
    36    20    21   ar
    37    20    40    1
    38    21    22   ar
    39    21    41    1
    40    22    23   ar
    41    22    42    1
    42    23    13    1
    43    23    18   ar
    44    24     4   ar
    45    24    43    1
@<TRIPOS>MOLECULE
*****
 43 45 0 0 0
SMALL
GASTEIGER

@<TRIPOS>ATOM
      1 C           4.6908    3.5044    2.3500 C.3     1  UNL11      -0.0586
      2 C           4.2285    2.1320    2.8521 C.3     1  UNL11      -0.0215
      3 C           5.4186    1.3228    3.3323 C.3     1  UNL11      -0.0586
      4 C           3.4581    1.4342    1.7915 C.ar    1  UNL11      -0.0430
      5 C           3.8783    0.2154    1.2920 C.ar    1  UNL11      -0.0582
      6 C           3.1529   -0.4589    0.3317 C.ar    1  UNL11      -0.0597
      7 C           1.9854    0.0401   -0.1749 C.ar    1  UNL11      -0.0405
      8 C           1.5408    1.2734    0.3164 C.ar    1  UNL11       0.0337
      9 N           0.3019    1.7695   -0.1615 N.am    1  UNL11      -0.2852
     10 C          -0.6804    0.9277   -0.7694 C.2     1  UNL11       0.2232
     11 O          -1.7214    1.5019   -1.1573 O.2     1  UNL11      -0.2751
     12 C          -0.4453   -0.5347   -0.9139 C.3     1  UNL11       0.0728
     13 C           0.8642   -0.9154   -0.3655 C.2     1  UNL11       0.1237
     14 N           1.5355   -1.9673   -0.9009 N.2     1  UNL11      -0.0071
     15 N           2.6879   -2.4230   -0.4779 N.am    1  UNL11      -0.0356
     16 C           3.2801   -1.8114    0.5802 C.2     1  UNL11       0.4383
     17 O           4.3814   -2.1842    1.0483 O.2     1  UNL11      -0.2116
     18 C           2.6407   -0.7381    1.1581 C.ar    1  UNL11       0.1004
     19 C           3.2384   -0.0757    2.2420 C.ar    1  UNL11      -0.0441
     20 C           2.6260    1.0040    2.8187 C.ar    1  UNL11      -0.0608
     21 C           1.4180    1.4757    2.3651 C.ar    1  UNL11      -0.0611
     22 C           0.8108    0.8355    1.2969 C.ar    1  UNL11      -0.0518
     23 C           1.4282   -0.2687    0.7031 C.ar    1  UNL11       0.0194
     24 C           2.2775    1.9306    1.2721 C.ar    1  UNL11      -0.0370
     25 H           3.9011    3.8487    1.6396 H       1  UNL11       0.0235
     26 H           5.6251    3.3651    1.7655 H       1  UNL11       0.0235
     27 H           4.7516    4.2299    3.1610 H       1  UNL11       0.0235
     28 H           3.6167    2.3228    3.7587 H       1  UNL11       0.0343
     29 H           5.6861    1.6154    4.3891 H       1  UNL11       0.0235
     30 H           5.1533    0.2508    3.3437 H       1  UNL11       0.0235
     31 H           6.3263    1.5140    2.7058 H       1  UNL11       0.0235
     32 H           4.7981   -0.1838    1.6942 H       1  UNL11       0.0620
     33 H           3.5440   -1.3991   -0.0058 H       1  UNL11       0.0618
     34 H           1.3910   -0.4778   -0.9420 H       1  UNL11       0.0636
     35 H           0.0413    2.7869   -0.0909 H       1  UNL11       0.1548
     36 H          -0.5086   -0.7744   -1.9889 H       1  UNL11       0.0425
     37 H          -1.2798   -1.0554   -0.3491 H       1  UNL11       0.0425
     38 H           3.1797   -3.2361   -0.9161 H       1  UNL11       0.4829
     39 H           4.2017   -0.4497    2.6082 H       1  UNL11       0.0627
     40 H           3.0698    1.5249    3.6557 H       1  UNL11       0.0618
     41 H           0.9132    2.3426    2.8171 H       1  UNL11       0.0618
     42 H          -0.1316    1.2058    0.9154 H       1  UNL11       0.0624
     43 H           1.9388    2.8906    1.6661 H       1  UNL11       0.0639
@<TRIPOS>BOND
     1     1     2    1
     2     1    25    1
     3     1    26    1
     4     1    27    1
     5     2     3    1
     6     2     4    1
     7     2    28    1
     8     3    29    1
     9     3    30    1
    10     3    31    1
    11     4     5   ar
    12     5     6   ar
    13     5    32    1
    14     6     7   ar
    15     6    33    1
    16     7     8   ar
    17     7    34    1
    18     8     9    1
    19     8    24   ar
    20     9    10   am
    21     9    35    1
    22    10    11    2
    23    10    12    1
    24    12    13    1
    25    12    36    1
    26    12    37    1
    27    13    14    2
    28    14    15    1
    29    15    16   am
    30    15    38    1
    31    16    17    2
    32    16    18    1
    33    18    19   ar
    34    19    20   ar
    35    19    39    1
    36    20    21   ar
    37    20    40    1
    38    21    22   ar
    39    21    41    1
    40    22    23   ar
    41    22    42    1
    42    23    13    1
    43    23    18   ar
    44    24     4   ar
    45    24    43    1
@<TRIPOS>MOLECULE
*****
 43 45 0 0 0
SMALL
GASTEIGER

@<TRIPOS>ATOM
      1 C           5.0770    0.6706   -2.0937 C.3     1  UNL11      -0.0586
      2 C           4.7239   -0.3277   -0.9856 C.3     1  UNL11      -0.0215
      3 C           4.2695   -1.6423   -1.5914 C.3     1  UNL11      -0.0586
      4 C           3.7079    0.2595   -0.0755 C.ar    1  UNL11      -0.0430
      5 C           3.9726    0.4305    1.2707 C.ar    1  UNL11      -0.0582
      6 C           3.0502    1.0065    2.1194 C.ar    1  UNL11      -0.0597
      7 C           1.8306    1.4368    1.6763 C.ar    1  UNL11      -0.0405
      8 C           1.5408    1.2734    0.3164 C.ar    1  UNL11       0.0337
      9 N           0.3019    1.7695   -0.1615 N.am    1  UNL11      -0.2852
     10 C          -0.6804    0.9277   -0.7694 C.2     1  UNL11       0.2232
     11 O          -1.7214    1.5019   -1.1573 O.2     1  UNL11      -0.2751
     12 C          -0.4453   -0.5347   -0.9139 C.3     1  UNL11       0.0728
     13 C          -1.1291   -1.0642   -2.1026 C.2     1  UNL11       0.1237
     14 N          -0.6008   -2.1267   -2.7626 N.2     1  UNL11      -0.0071
     15 N          -1.0957   -2.6636   -3.8495 N.am    1  UNL11      -0.0356
     16 C          -2.2282   -2.1332   -4.3791 C.2     1  UNL11       0.4383
     17 O          -2.7667   -2.5854   -5.4166 O.2     1  UNL11      -0.2116
     18 C          -2.8045   -1.0553   -3.7461 C.ar    1  UNL11       0.1004
     19 C          -3.9856   -0.4980   -4.2614 C.ar    1  UNL11      -0.0441
     20 C          -4.5827    0.5630   -3.6362 C.ar    1  UNL11      -0.0608
     21 C          -4.0563    1.1170   -2.4945 C.ar    1  UNL11      -0.0611
     22 C          -2.8907    0.5824   -1.9700 C.ar    1  UNL11      -0.0518
     23 C          -2.2734   -0.4999   -2.6029 C.ar    1  UNL11       0.0194
     24 C           2.4720    0.6966   -0.5131 C.ar    1  UNL11      -0.0370
     25 H           4.9690    1.6830   -1.6350 H       1  UNL11       0.0235
     26 H           4.3128    0.5863   -2.8954 H       1  UNL11       0.0235
     27 H           6.1107    0.5594   -2.4208 H       1  UNL11       0.0235
     28 H           5.6745   -0.5581   -0.4605 H       1  UNL11       0.0343
     29 H           5.1643   -2.2719   -1.8686 H       1  UNL11       0.0235
     30 H           3.6859   -2.2087   -0.8443 H       1  UNL11       0.0235
     31 H           3.6849   -1.4817   -2.5324 H       1  UNL11       0.0235
     32 H           4.9377    0.0960    1.6227 H       1  UNL11       0.0620
     33 H           3.3291    1.1048    3.1506 H       1  UNL11       0.0618
     34 H           1.0782    1.8968    2.3338 H       1  UNL11       0.0636
     35 H           0.0413    2.7869   -0.0909 H       1  UNL11       0.1548
     36 H          -0.8157   -1.0207    0.0045 H       1  UNL11       0.0425
     37 H           0.6764   -0.6762   -1.0042 H       1  UNL11       0.0425
     38 H          -0.6634   -3.4852   -4.3323 H       1  UNL11       0.4829
     39 H          -4.4083   -0.9361   -5.1733 H       1  UNL11       0.0627
     40 H          -5.4908    1.0069   -4.0198 H       1  UNL11       0.0618
     41 H          -4.5244    1.9694   -1.9796 H       1  UNL11       0.0618
     42 H          -2.4733    0.9950   -1.0610 H       1  UNL11       0.0624
     43 H           2.2593    0.5679   -1.5761 H       1  UNL11       0.0639
@<TRIPOS>BOND
     1     1     2    1
     2     1    25    1
     3     1    26    1
     4     1    27    1
     5     2     3    1
     6     2     4    1
     7     2    28    1
     8     3    29    1
     9     3    30    1
    10     3    31    1
    11     4     5   ar
    12     5     6   ar
    13     5    32    1
    14     6     7   ar
    15     6    33    1
    16     7     8   ar
    17     7    34    1
    18     8     9    1
    19     8    24   ar
    20     9    10   am
    21     9    35    1
    22    10    11    2
    23    10    12    1
    24    12    13    1
    25    12    36    1
    26    12    37    1
    27    13    14    2
    28    14    15    1
    29    15    16   am
    30    15    38    1
    31    16    17    2
    32    16    18    1
    33    18    19   ar
    34    19    20   ar
    35    19    39    1
    36    20    21   ar
    37    20    40    1
    38    21    22   ar
    39    21    41    1
    40    22    23   ar
    41    22    42    1
    42    23    13    1
    43    23    18   ar
    44    24     4   ar
    45    24    43    1
@<TRIPOS>MOLECULE
*****
 43 45 0 0 0
SMALL
GASTEIGER

@<TRIPOS>ATOM
      1 C           6.3702    0.8503    0.0766 C.3     1  UNL11      -0.0586
      2 C           5.2624    1.8994   -0.0696 C.3     1  UNL11      -0.0215
      3 C           5.6359    3.1626    0.6831 C.3     1  UNL11      -0.0586
      4 C           3.9637    1.3348    0.3777 C.ar    1  UNL11      -0.0430
      5 C           3.9112    0.3584    1.3552 C.ar    1  UNL11      -0.0582
      6 C           2.7093   -0.1488    1.8037 C.ar    1  UNL11      -0.0597
      7 C           1.5117    0.2850    1.3075 C.ar    1  UNL11      -0.0405
      8 C           1.5408    1.2734    0.3164 C.ar    1  UNL11       0.0337
      9 N           0.3019    1.7695   -0.1615 N.am    1  UNL11      -0.2852
     10 C          -0.6804    0.9277   -0.7694 C.2     1  UNL11       0.2232
     11 O          -1.7214    1.5019   -1.1573 O.2     1  UNL11      -0.2751
     12 C          -0.4453   -0.5347   -0.9139 C.3     1  UNL11       0.0728
     13 C          -0.9454   -1.2679    0.2578 C.2     1  UNL11       0.1237
     14 N          -1.9076   -2.2125    0.0975 N.2     1  UNL11      -0.0071
     15 N          -2.4564   -2.9042    1.0644 N.am    1  UNL11      -0.0356
     16 C          -2.0475   -2.6771    2.3394 C.2     1  UNL11       0.4383
     17 O          -2.5211   -3.2941    3.3222 O.2     1  UNL11      -0.2116
     18 C          -1.0722   -1.7302    2.5553 C.ar    1  UNL11       0.1004
     19 C          -0.6177   -1.4875    3.8613 C.ar    1  UNL11      -0.0441
     20 C           0.3635   -0.5621    4.0939 C.ar    1  UNL11      -0.0608
     21 C           0.9346    0.1563    3.0715 C.ar    1  UNL11      -0.0611
     22 C           0.4996   -0.0674    1.7752 C.ar    1  UNL11      -0.0518
     23 C          -0.5030   -1.0093    1.5289 C.ar    1  UNL11       0.0194
     24 C           2.7477    1.7656   -0.1182 C.ar    1  UNL11      -0.0370
     25 H           5.8769   -0.1369   -0.0940 H       1  UNL11       0.0235
     26 H           6.7279    0.8651    1.1281 H       1  UNL11       0.0235
     27 H           7.1437    0.9738   -0.6811 H       1  UNL11       0.0235
     28 H           5.2476    2.1884   -1.1414 H       1  UNL11       0.0343
     29 H           6.3197    3.8022    0.0529 H       1  UNL11       0.0235
     30 H           4.7246    3.7530    0.8847 H       1  UNL11       0.0235
     31 H           6.1912    2.9306    1.6269 H       1  UNL11       0.0235
     32 H           4.8560    0.0174    1.7529 H       1  UNL11       0.0620
     33 H           2.7508   -0.9043    2.5642 H       1  UNL11       0.0618
     34 H           0.5411   -0.1056    1.6475 H       1  UNL11       0.0636
     35 H           0.0413    2.7869   -0.0909 H       1  UNL11       0.1548
     36 H           0.6405   -0.6835   -1.0396 H       1  UNL11       0.0425
     37 H          -0.9941   -0.8610   -1.8514 H       1  UNL11       0.0425
     38 H          -3.1955   -3.6277    0.9050 H       1  UNL11       0.4829
     39 H          -1.0718   -2.0575    4.6804 H       1  UNL11       0.0627
     40 H           0.7241   -0.3598    5.0928 H       1  UNL11       0.0618
     41 H           1.7246    0.9031    3.2417 H       1  UNL11       0.0618
     42 H           0.9521    0.4764    0.9566 H       1  UNL11       0.0624
     43 H           2.7832    2.5397   -0.8872 H       1  UNL11       0.0639
@<TRIPOS>BOND
     1     1     2    1
     2     1    25    1
     3     1    26    1
     4     1    27    1
     5     2     3    1
     6     2     4    1
     7     2    28    1
     8     3    29    1
     9     3    30    1
    10     3    31    1
    11     4     5   ar
    12     5     6   ar
    13     5    32    1
    14     6     7   ar
    15     6    33    1
    16     7     8   ar
    17     7    34    1
    18     8     9    1
    19     8    24   ar
    20     9    10   am
    21     9    35    1
    22    10    11    2
    23    10    12    1
    24    12    13    1
    25    12    36    1
    26    12    37    1
    27    13    14    2
    28    14    15    1
    29    15    16   am
    30    15    38    1
    31    16    17    2
    32    16    18    1
    33    18    19   ar
    34    19    20   ar
    35    19    39    1
    36    20    21   ar
    37    20    40    1
    38    21    22   ar
    39    21    41    1
    40    22    23   ar
    41    22    42    1
    42    23    13    1
    43    23    18   ar
    44    24     4   ar
    45    24    43    1
@<TRIPOS>MOLECULE
*****
 43 45 0 0 0
SMALL
GASTEIGER

@<TRIPOS>ATOM
      1 C           2.8397    2.0683    4.2435 C.3     1  UNL11      -0.0586
      2 C           3.4206    0.8149    3.5794 C.3     1  UNL11      -0.0215
      3 C           4.9183    0.7466    3.8115 C.3     1  UNL11      -0.0586
      4 C           3.0678    0.7925    2.1370 C.ar    1  UNL11      -0.0430
      5 C           3.9028    0.1971    1.2096 C.ar    1  UNL11      -0.0582
      6 C           3.5697    0.1392   -0.1278 C.ar    1  UNL11      -0.0597
      7 C           2.4017    0.6653   -0.6051 C.ar    1  UNL11      -0.0405
      8 C           1.5408    1.2734    0.3164 C.ar    1  UNL11       0.0337
      9 N           0.3019    1.7695   -0.1615 N.am    1  UNL11      -0.2852
     10 C          -0.6804    0.9277   -0.7694 C.2     1  UNL11       0.2232
     11 O          -1.7214    1.5019   -1.1573 O.2     1  UNL11      -0.2751
     12 C          -0.4453   -0.5347   -0.9139 C.3     1  UNL11       0.0728
     13 C           0.7594   -0.7990   -1.7137 C.2     1  UNL11       0.1237
     14 N           1.4814    0.2417   -2.2028 N.2     1  UNL11      -0.0071
     15 N           2.5480    0.1345   -2.9549 N.am    1  UNL11      -0.0356
     16 C           2.9876   -1.1070   -3.2864 C.2     1  UNL11       0.4383
     17 O           3.9986   -1.2984   -4.0021 O.2     1  UNL11      -0.2116
     18 C           2.2911   -2.1961   -2.8138 C.ar    1  UNL11       0.1004
     19 C           2.7334   -3.4914   -3.1261 C.ar    1  UNL11      -0.0441
     20 C           2.0640   -4.5866   -2.6511 C.ar    1  UNL11      -0.0608
     21 C           0.9474   -4.4628   -1.8603 C.ar    1  UNL11      -0.0611
     22 C           0.4938   -3.1931   -1.5412 C.ar    1  UNL11      -0.0518
     23 C           1.1703   -2.0693   -2.0232 C.ar    1  UNL11       0.0194
     24 C           1.8903    1.3222    1.6443 C.ar    1  UNL11      -0.0370
     25 H           1.8937    2.2915    3.6937 H       1  UNL11       0.0235
     26 H           3.5366    2.9139    4.0617 H       1  UNL11       0.0235
     27 H           2.5859    1.8891    5.2881 H       1  UNL11       0.0235
     28 H           2.9974   -0.0522    4.1285 H       1  UNL11       0.0343
     29 H           5.1340    0.3041    4.8272 H       1  UNL11       0.0235
     30 H           5.3768    0.0823    3.0578 H       1  UNL11       0.0235
     31 H           5.3838    1.7645    3.7984 H       1  UNL11       0.0235
     32 H           4.8242   -0.2240    1.5848 H       1  UNL11       0.0620
     33 H           4.2693   -0.3389   -0.7856 H       1  UNL11       0.0618
     34 H           2.1154    0.6333   -1.6667 H       1  UNL11       0.0636
     35 H           0.0413    2.7869   -0.0909 H       1  UNL11       0.1548
     36 H          -1.3403   -0.9670   -1.3925 H       1  UNL11       0.0425
     37 H          -0.3256   -0.9498    0.1348 H       1  UNL11       0.0425
     38 H           3.0829    0.9592   -3.3136 H       1  UNL11       0.4829
     39 H           3.6233   -3.5949   -3.7581 H       1  UNL11       0.0627
     40 H           2.3882   -5.5916   -2.8833 H       1  UNL11       0.0618
     41 H           0.3986   -5.3330   -1.4700 H       1  UNL11       0.0618
     42 H          -0.3731   -3.0780   -0.9040 H       1  UNL11       0.0624
     43 H           1.2252    1.7897    2.3730 H       1  UNL11       0.0639
@<TRIPOS>BOND
     1     1     2    1
     2     1    25    1
     3     1    26    1
     4     1    27    1
     5     2     3    1
     6     2     4    1
     7     2    28    1
     8     3    29    1
     9     3    30    1
    10     3    31    1
    11     4     5   ar
    12     5     6   ar
    13     5    32    1
    14     6     7   ar
    15     6    33    1
    16     7     8   ar
    17     7    34    1
    18     8     9    1
    19     8    24   ar
    20     9    10   am
    21     9    35    1
    22    10    11    2
    23    10    12    1
    24    12    13    1
    25    12    36    1
    26    12    37    1
    27    13    14    2
    28    14    15    1
    29    15    16   am
    30    15    38    1
    31    16    17    2
    32    16    18    1
    33    18    19   ar
    34    19    20   ar
    35    19    39    1
    36    20    21   ar
    37    20    40    1
    38    21    22   ar
    39    21    41    1
    40    22    23   ar
    41    22    42    1
    42    23    13    1
    43    23    18   ar
    44    24     4   ar
    45    24    43    1
