@<TRIPOS>MOLECULE
*****
 59 63 0 0 0
SMALL
GASTEIGER

@<TRIPOS>ATOM
      1 O          -2.0323    0.8560    0.8669 O.2     1  UNL11      -0.2700
      2 C          -1.1213    1.1791    1.7800 C.2     1  UNL11       0.2467
      3 C          -0.0128    0.2638    1.9168 C.ar    1  UNL11       0.0372
      4 C           0.5720    0.1646    3.1999 C.ar    1  UNL11      -0.0496
      5 C           1.6430   -0.6586    3.3810 C.ar    1  UNL11      -0.0608
      6 C           2.1775   -1.4009    2.3519 C.ar    1  UNL11      -0.0582
      7 C           1.6525   -1.3437    1.0881 C.ar    1  UNL11      -0.0407
      8 C           2.1622   -2.0994   -0.0926 C.3     1  UNL11       0.0208
      9 C           1.1516   -2.4485   -1.0800 C.2     1  UNL11       0.1150
     10 N          -0.1556   -2.0836   -0.8860 N.2     1  UNL11      -0.0076
     11 N          -1.0824   -2.3421   -1.7850 N.am    1  UNL11      -0.0358
     12 C          -0.8342   -2.9710   -2.9441 C.2     1  UNL11       0.4340
     13 O          -1.7376   -3.2073   -3.7905 O.2     1  UNL11      -0.2120
     14 C           0.4430   -3.3630   -3.2023 C.2     1  UNL11       0.0740
     15 C           1.4243   -3.0852   -2.2392 C.2     1  UNL11      -0.0072
     16 C           2.7718   -3.6024   -2.6106 C.3     1  UNL11      -0.0252
     17 C           3.0802   -2.9578   -3.9560 C.3     1  UNL11      -0.0487
     18 C           2.1788   -3.5748   -4.9785 C.3     1  UNL11      -0.0484
     19 C           0.8753   -4.0629   -4.4408 C.3     1  UNL11      -0.0176
     20 C           0.5413   -0.4814    0.9243 C.ar    1  UNL11      -0.0461
     21 N          -1.3643    2.3567    2.4747 N.am    1  UNL11      -0.2945
     22 C          -0.3376    2.7204    3.4795 C.3     1  UNL11       0.0308
     23 C          -1.0468    2.6347    4.8285 C.3     1  UNL11       0.0294
     24 N          -2.2000    3.5463    4.7723 N.pl3   1  UNL11      -0.3122
     25 C          -2.9130    3.7784    5.9624 C.ar    1  UNL11       0.1213
     26 C          -2.3966    3.7435    7.2312 C.ar    1  UNL11      -0.0217
     27 C          -3.1472    3.9801    8.3777 C.ar    1  UNL11      -0.0571
     28 C          -4.4843    4.2678    8.2707 C.ar    1  UNL11      -0.0435
     29 C          -5.0107    4.3033    6.9744 C.ar    1  UNL11       0.0297
     30 N          -4.2481    4.0689    5.9064 N.ar    1  UNL11      -0.2403
     31 C          -2.5515    4.1615    3.5348 C.3     1  UNL11       0.0294
     32 C          -2.4826    3.1927    2.3405 C.3     1  UNL11       0.0308
     33 H           0.1633    0.7448    4.0433 H       1  UNL11       0.0625
     34 H           2.1183   -0.7600    4.3544 H       1  UNL11       0.0618
     35 H           3.0273   -2.0535    2.5602 H       1  UNL11       0.0620
     36 H           2.9975   -1.4880   -0.4972 H       1  UNL11       0.0379
     37 H           2.6642   -3.0401    0.2814 H       1  UNL11       0.0379
     38 H          -2.0634   -2.0482   -1.5994 H       1  UNL11       0.4828
     39 H           3.5302   -3.3229   -1.9015 H       1  UNL11       0.0314
     40 H           2.6811   -4.7185   -2.7341 H       1  UNL11       0.0314
     41 H           2.8716   -1.8696   -3.8130 H       1  UNL11       0.0268
     42 H           4.1389   -3.1601   -4.1674 H       1  UNL11       0.0268
     43 H           2.0387   -2.8053   -5.7922 H       1  UNL11       0.0269
     44 H           2.7426   -4.4410   -5.4202 H       1  UNL11       0.0269
     45 H           0.8956   -5.1806   -4.2759 H       1  UNL11       0.0316
     46 H           0.1009   -3.9142   -5.2400 H       1  UNL11       0.0316
     47 H           0.1806   -0.4443   -0.0735 H       1  UNL11       0.0628
     48 H           0.5058    2.0372    3.4346 H       1  UNL11       0.0480
     49 H          -0.0824    3.7837    3.3019 H       1  UNL11       0.0480
     50 H          -0.3435    3.0172    5.5802 H       1  UNL11       0.0480
     51 H          -1.3938    1.6197    4.9686 H       1  UNL11       0.0480
     52 H          -1.3317    3.5147    7.3386 H       1  UNL11       0.0652
     53 H          -2.7136    3.9453    9.3637 H       1  UNL11       0.0619
     54 H          -5.1267    4.4616    9.1236 H       1  UNL11       0.0633
     55 H          -6.0669    4.5322    6.9193 H       1  UNL11       0.0830
     56 H          -3.5566    4.6102    3.4978 H       1  UNL11       0.0480
     57 H          -1.8313    4.9769    3.3157 H       1  UNL11       0.0480
     58 H          -3.4321    2.6013    2.3894 H       1  UNL11       0.0480
     59 H          -2.4365    3.8639    1.4322 H       1  UNL11       0.0480
@<TRIPOS>BOND
     1     1     2    2
     2     2     3    1
     3     2    21   am
     4     3     4   ar
     5     4     5   ar
     6     4    33    1
     7     5     6   ar
     8     5    34    1
     9     6     7   ar
    10     6    35    1
    11     7     8    1
    12     7    20   ar
    13     8     9    1
    14     8    36    1
    15     8    37    1
    16     9    10    2
    17    10    11    1
    18    11    12   am
    19    11    38    1
    20    12    13    2
    21    12    14    1
    22    14    15    2
    23    15    16    1
    24    15     9    1
    25    16    17    1
    26    16    39    1
    27    16    40    1
    28    17    18    1
    29    17    41    1
    30    17    42    1
    31    18    19    1
    32    18    43    1
    33    18    44    1
    34    19    14    1
    35    19    45    1
    36    19    46    1
    37    20     3   ar
    38    20    47    1
    39    21    22    1
    40    22    23    1
    41    22    48    1
    42    22    49    1
    43    23    24    1
    44    23    50    1
    45    23    51    1
    46    24    25    1
    47    24    31    1
    48    25    26   ar
    49    26    27   ar
    50    26    52    1
    51    27    28   ar
    52    27    53    1
    53    28    29   ar
    54    28    54    1
    55    29    30   ar
    56    29    55    1
    57    30    25   ar
    58    31    32    1
    59    31    56    1
    60    31    57    1
    61    32    21    1
    62    32    58    1
    63    32    59    1
@<TRIPOS>MOLECULE
*****
 59 63 0 0 0
SMALL
GASTEIGER

@<TRIPOS>ATOM
      1 O          -1.1098    2.2311    2.5931 O.2     1  UNL11      -0.2700
      2 C          -1.1213    1.1791    1.7800 C.2     1  UNL11       0.2467
      3 C          -0.0128    0.2638    1.9168 C.ar    1  UNL11       0.0372
      4 C           0.5720    0.1646    3.1999 C.ar    1  UNL11      -0.0496
      5 C           1.6430   -0.6586    3.3810 C.ar    1  UNL11      -0.0608
      6 C           2.1775   -1.4009    2.3519 C.ar    1  UNL11      -0.0582
      7 C           1.6525   -1.3437    1.0881 C.ar    1  UNL11      -0.0407
      8 C           2.1622   -2.0994   -0.0926 C.3     1  UNL11       0.0208
      9 C           3.3115   -2.9515    0.1744 C.2     1  UNL11       0.1150
     10 N           3.8760   -3.6834   -0.8381 N.2     1  UNL11      -0.0076
     11 N           4.9460   -4.4241   -0.6373 N.am    1  UNL11      -0.0358
     12 C           5.5641   -4.5250    0.5494 C.2     1  UNL11       0.4340
     13 O           6.5881   -5.2402    0.7182 O.2     1  UNL11      -0.2120
     14 C           5.0566   -3.8254    1.6004 C.2     1  UNL11       0.0740
     15 C           3.9159   -3.0397    1.3787 C.2     1  UNL11      -0.0072
     16 C           3.4255   -2.3593    2.6107 C.3     1  UNL11      -0.0252
     17 C           4.6105   -1.5366    3.1003 C.3     1  UNL11      -0.0487
     18 C           5.6458   -2.4850    3.6176 C.3     1  UNL11      -0.0484
     19 C           5.6311   -3.8300    2.9717 C.3     1  UNL11      -0.0176
     20 C           0.5413   -0.4814    0.9243 C.ar    1  UNL11      -0.0461
     21 N          -2.2027    1.1076    0.9118 N.am    1  UNL11      -0.2945
     22 C          -3.1786    2.2170    1.0259 C.3     1  UNL11       0.0308
     23 C          -4.4679    1.5689    1.5235 C.3     1  UNL11       0.0294
     24 N          -4.8344    0.5273    0.5516 N.pl3   1  UNL11      -0.3122
     25 C          -6.0873   -0.0955    0.6967 C.ar    1  UNL11       0.1213
     26 C          -7.2138    0.4744    1.2295 C.ar    1  UNL11      -0.0217
     27 C          -8.4308   -0.1874    1.3514 C.ar    1  UNL11      -0.0571
     28 C          -8.5472   -1.4860    0.9246 C.ar    1  UNL11      -0.0435
     29 C          -7.3961   -2.0670    0.3804 C.ar    1  UNL11       0.0297
     30 N          -6.2521   -1.3893    0.2857 N.ar    1  UNL11      -0.2403
     31 C          -3.9261    0.1895   -0.4945 C.3     1  UNL11       0.0294
     32 C          -2.4669    0.0881   -0.0147 C.3     1  UNL11       0.0308
     33 H           0.1633    0.7448    4.0433 H       1  UNL11       0.0625
     34 H           2.1183   -0.7600    4.3544 H       1  UNL11       0.0618
     35 H           3.0273   -2.0535    2.5602 H       1  UNL11       0.0620
     36 H           1.2817   -2.6421   -0.4993 H       1  UNL11       0.0379
     37 H           2.4252   -1.3545   -0.9006 H       1  UNL11       0.0379
     38 H           5.3438   -4.9648   -1.4327 H       1  UNL11       0.4828
     39 H           2.5952   -1.7042    2.4168 H       1  UNL11       0.0314
     40 H           3.1809   -3.1614    3.3630 H       1  UNL11       0.0314
     41 H           4.9660   -0.9741    2.2030 H       1  UNL11       0.0268
     42 H           4.2301   -0.8745    3.8898 H       1  UNL11       0.0268
     43 H           6.6433   -1.9704    3.4994 H       1  UNL11       0.0269
     44 H           5.4497   -2.6026    4.7180 H       1  UNL11       0.0269
     45 H           5.0990   -4.5874    3.6200 H       1  UNL11       0.0316
     46 H           6.6910   -4.1978    2.9282 H       1  UNL11       0.0316
     47 H           0.1806   -0.4443   -0.0735 H       1  UNL11       0.0628
     48 H          -2.8245    2.9728    1.7214 H       1  UNL11       0.0480
     49 H          -3.3633    2.5842   -0.0028 H       1  UNL11       0.0480
     50 H          -5.2422    2.3474    1.5005 H       1  UNL11       0.0480
     51 H          -4.2730    1.1143    2.4857 H       1  UNL11       0.0480
     52 H          -7.1418    1.5097    1.5771 H       1  UNL11       0.0652
     53 H          -9.3007    0.2867    1.7755 H       1  UNL11       0.0619
     54 H          -9.4661   -2.0595    0.9911 H       1  UNL11       0.0633
     55 H          -7.5162   -3.0912    0.0522 H       1  UNL11       0.0830
     56 H          -4.1356   -0.7577   -1.0158 H       1  UNL11       0.0480
     57 H          -3.9452    0.9875   -1.2654 H       1  UNL11       0.0480
     58 H          -2.3874   -0.9198    0.4665 H       1  UNL11       0.0480
     59 H          -1.8510    0.1672   -0.9590 H       1  UNL11       0.0480
@<TRIPOS>BOND
     1     1     2    2
     2     2     3    1
     3     2    21   am
     4     3     4   ar
     5     4     5   ar
     6     4    33    1
     7     5     6   ar
     8     5    34    1
     9     6     7   ar
    10     6    35    1
    11     7     8    1
    12     7    20   ar
    13     8     9    1
    14     8    36    1
    15     8    37    1
    16     9    10    2
    17    10    11    1
    18    11    12   am
    19    11    38    1
    20    12    13    2
    21    12    14    1
    22    14    15    2
    23    15    16    1
    24    15     9    1
    25    16    17    1
    26    16    39    1
    27    16    40    1
    28    17    18    1
    29    17    41    1
    30    17    42    1
    31    18    19    1
    32    18    43    1
    33    18    44    1
    34    19    14    1
    35    19    45    1
    36    19    46    1
    37    20     3   ar
    38    20    47    1
    39    21    22    1
    40    22    23    1
    41    22    48    1
    42    22    49    1
    43    23    24    1
    44    23    50    1
    45    23    51    1
    46    24    25    1
    47    24    31    1
    48    25    26   ar
    49    26    27   ar
    50    26    52    1
    51    27    28   ar
    52    27    53    1
    53    28    29   ar
    54    28    54    1
    55    29    30   ar
    56    29    55    1
    57    30    25   ar
    58    31    32    1
    59    31    56    1
    60    31    57    1
    61    32    21    1
    62    32    58    1
    63    32    59    1
@<TRIPOS>MOLECULE
*****
 59 63 0 0 0
SMALL
GASTEIGER

@<TRIPOS>ATOM
      1 O          -2.0323    0.8560    0.8669 O.2     1  UNL11      -0.2700
      2 C          -1.1213    1.1791    1.7800 C.2     1  UNL11       0.2467
      3 C          -0.0128    0.2638    1.9168 C.ar    1  UNL11       0.0372
      4 C           0.5720    0.1646    3.1999 C.ar    1  UNL11      -0.0496
      5 C           1.6430   -0.6586    3.3810 C.ar    1  UNL11      -0.0608
      6 C           2.1775   -1.4009    2.3519 C.ar    1  UNL11      -0.0582
      7 C           1.6525   -1.3437    1.0881 C.ar    1  UNL11      -0.0407
      8 C           2.1622   -2.0994   -0.0926 C.3     1  UNL11       0.0208
      9 C           3.5890   -2.3855   -0.0681 C.2     1  UNL11       0.1150
     10 N           4.3572   -1.9669    0.9874 N.2     1  UNL11      -0.0076
     11 N           5.6402   -2.2540    1.0607 N.am    1  UNL11      -0.0358
     12 C           6.2936   -2.9660    0.1298 C.2     1  UNL11       0.4340
     13 O           7.5227   -3.2295    0.2213 O.2     1  UNL11      -0.2120
     14 C           5.5924   -3.4132   -0.9472 C.2     1  UNL11       0.0740
     15 C           4.2265   -3.1021   -1.0187 C.2     1  UNL11      -0.0072
     16 C           3.5765   -3.6033   -2.2627 C.3     1  UNL11      -0.0252
     17 C           3.8300   -5.1054   -2.2578 C.3     1  UNL11      -0.0487
     18 C           5.2872   -5.3263   -2.5156 C.3     1  UNL11      -0.0484
     19 C           6.1724   -4.2167   -2.0557 C.3     1  UNL11      -0.0176
     20 C           0.5413   -0.4814    0.9243 C.ar    1  UNL11      -0.0461
     21 N          -1.3643    2.3567    2.4747 N.am    1  UNL11      -0.2945
     22 C          -0.3376    2.7204    3.4795 C.3     1  UNL11       0.0308
     23 C          -1.0468    2.6347    4.8285 C.3     1  UNL11       0.0294
     24 N          -2.2000    3.5463    4.7723 N.pl3   1  UNL11      -0.3122
     25 C          -2.9130    3.7784    5.9624 C.ar    1  UNL11       0.1213
     26 C          -3.0546    2.8970    7.0020 C.ar    1  UNL11      -0.0217
     27 C          -3.7731    3.1764    8.1595 C.ar    1  UNL11      -0.0571
     28 C          -4.3889    4.3939    8.3033 C.ar    1  UNL11      -0.0435
     29 C          -4.2435    5.2934    7.2409 C.ar    1  UNL11       0.0297
     30 N          -3.5435    4.9770    6.1514 N.ar    1  UNL11      -0.2403
     31 C          -2.5515    4.1615    3.5348 C.3     1  UNL11       0.0294
     32 C          -2.4826    3.1927    2.3405 C.3     1  UNL11       0.0308
     33 H           0.1633    0.7448    4.0433 H       1  UNL11       0.0625
     34 H           2.1183   -0.7600    4.3544 H       1  UNL11       0.0618
     35 H           3.0273   -2.0535    2.5602 H       1  UNL11       0.0620
     36 H           1.5207   -3.0042   -0.1643 H       1  UNL11       0.0379
     37 H           1.9124   -1.5090   -1.0231 H       1  UNL11       0.0379
     38 H           6.1882   -1.9173    1.8790 H       1  UNL11       0.4828
     39 H           2.5166   -3.4227   -2.2752 H       1  UNL11       0.0314
     40 H           4.1093   -3.1292   -3.1348 H       1  UNL11       0.0314
     41 H           3.5260   -5.4494   -1.2393 H       1  UNL11       0.0268
     42 H           3.2036   -5.5336   -3.0520 H       1  UNL11       0.0268
     43 H           5.5557   -6.3096   -2.0311 H       1  UNL11       0.0269
     44 H           5.3996   -5.4505   -3.6270 H       1  UNL11       0.0269
     45 H           6.4666   -3.5467   -2.9168 H       1  UNL11       0.0316
     46 H           7.1404   -4.6728   -1.7156 H       1  UNL11       0.0316
     47 H           0.1806   -0.4443   -0.0735 H       1  UNL11       0.0628
     48 H           0.5058    2.0372    3.4346 H       1  UNL11       0.0480
     49 H          -0.0824    3.7837    3.3019 H       1  UNL11       0.0480
     50 H          -0.3435    3.0172    5.5802 H       1  UNL11       0.0480
     51 H          -1.3938    1.6197    4.9686 H       1  UNL11       0.0480
     52 H          -2.5718    1.9194    6.9067 H       1  UNL11       0.0652
     53 H          -3.8679    2.4626    8.9613 H       1  UNL11       0.0619
     54 H          -4.9646    4.6755    9.1790 H       1  UNL11       0.0633
     55 H          -4.7391    6.2451    7.3807 H       1  UNL11       0.0830
     56 H          -3.5566    4.6102    3.4978 H       1  UNL11       0.0480
     57 H          -1.8313    4.9769    3.3157 H       1  UNL11       0.0480
     58 H          -3.4321    2.6013    2.3894 H       1  UNL11       0.0480
     59 H          -2.4365    3.8639    1.4322 H       1  UNL11       0.0480
@<TRIPOS>BOND
     1     1     2    2
     2     2     3    1
     3     2    21   am
     4     3     4   ar
     5     4     5   ar
     6     4    33    1
     7     5     6   ar
     8     5    34    1
     9     6     7   ar
    10     6    35    1
    11     7     8    1
    12     7    20   ar
    13     8     9    1
    14     8    36    1
    15     8    37    1
    16     9    10    2
    17    10    11    1
    18    11    12   am
    19    11    38    1
    20    12    13    2
    21    12    14    1
    22    14    15    2
    23    15    16    1
    24    15     9    1
    25    16    17    1
    26    16    39    1
    27    16    40    1
    28    17    18    1
    29    17    41    1
    30    17    42    1
    31    18    19    1
    32    18    43    1
    33    18    44    1
    34    19    14    1
    35    19    45    1
    36    19    46    1
    37    20     3   ar
    38    20    47    1
    39    21    22    1
    40    22    23    1
    41    22    48    1
    42    22    49    1
    43    23    24    1
    44    23    50    1
    45    23    51    1
    46    24    25    1
    47    24    31    1
    48    25    26   ar
    49    26    27   ar
    50    26    52    1
    51    27    28   ar
    52    27    53    1
    53    28    29   ar
    54    28    54    1
    55    29    30   ar
    56    29    55    1
    57    30    25   ar
    58    31    32    1
    59    31    56    1
    60    31    57    1
    61    32    21    1
    62    32    58    1
    63    32    59    1
@<TRIPOS>MOLECULE
*****
 59 63 0 0 0
SMALL
GASTEIGER

@<TRIPOS>ATOM
      1 O          -1.4739    1.8334    2.8825 O.2     1  UNL11      -0.2700
      2 C          -1.1213    1.1791    1.7800 C.2     1  UNL11       0.2467
      3 C          -0.0128    0.2638    1.9168 C.ar    1  UNL11       0.0372
      4 C           0.5720    0.1646    3.1999 C.ar    1  UNL11      -0.0496
      5 C           1.6430   -0.6586    3.3810 C.ar    1  UNL11      -0.0608
      6 C           2.1775   -1.4009    2.3519 C.ar    1  UNL11      -0.0582
      7 C           1.6525   -1.3437    1.0881 C.ar    1  UNL11      -0.0407
      8 C           2.1622   -2.0994   -0.0926 C.3     1  UNL11       0.0208
      9 C           1.4420   -1.8562   -1.3337 C.2     1  UNL11       0.1150
     10 N           0.8220   -2.8916   -1.9843 N.2     1  UNL11      -0.0076
     11 N           0.1219   -2.6934   -3.0817 N.am    1  UNL11      -0.0358
     12 C          -0.0429   -1.4875   -3.6468 C.2     1  UNL11       0.4340
     13 O          -0.7185   -1.3214   -4.6977 O.2     1  UNL11      -0.2120
     14 C           0.5463   -0.4137   -3.0540 C.2     1  UNL11       0.0740
     15 C           1.2916   -0.6332   -1.8861 C.2     1  UNL11      -0.0072
     16 C           1.9267    0.6063   -1.3555 C.3     1  UNL11      -0.0252
     17 C           0.7706    1.5730   -1.1331 C.3     1  UNL11      -0.0487
     18 C           0.2586    1.9935   -2.4746 C.3     1  UNL11      -0.0484
     19 C           0.4512    0.9828   -3.5554 C.3     1  UNL11      -0.0176
     20 C           0.5413   -0.4814    0.9243 C.ar    1  UNL11      -0.0461
     21 N          -1.8727    1.4679    0.6485 N.am    1  UNL11      -0.2945
     22 C          -1.4859    0.7239   -0.5733 C.3     1  UNL11       0.0308
     23 C          -0.9641    1.7829   -1.5409 C.3     1  UNL11       0.0294
     24 N          -2.0432    2.7635   -1.7358 N.pl3   1  UNL11      -0.3122
     25 C          -1.8675    3.7459   -2.7271 C.ar    1  UNL11       0.1213
     26 C          -0.7741    3.8822   -3.5418 C.ar    1  UNL11      -0.0217
     27 C          -0.6495    4.8746   -4.5081 C.ar    1  UNL11      -0.0571
     28 C          -1.6591    5.7867   -4.6837 C.ar    1  UNL11      -0.0435
     29 C          -2.7754    5.6464   -3.8512 C.ar    1  UNL11       0.0297
     30 N          -2.8464    4.6768   -2.9391 N.ar    1  UNL11      -0.2403
     31 C          -3.2179    2.6869   -0.9311 C.3     1  UNL11       0.0294
     32 C          -2.9143    2.4024    0.5510 C.3     1  UNL11       0.0308
     33 H           0.1633    0.7448    4.0433 H       1  UNL11       0.0625
     34 H           2.1183   -0.7600    4.3544 H       1  UNL11       0.0618
     35 H           3.0273   -2.0535    2.5602 H       1  UNL11       0.0620
     36 H           3.2477   -1.8669   -0.1467 H       1  UNL11       0.0379
     37 H           2.1275   -3.2018    0.1532 H       1  UNL11       0.0379
     38 H          -0.3334   -3.5064   -3.5454 H       1  UNL11       0.4828
     39 H           2.4356    0.4416   -0.4228 H       1  UNL11       0.0314
     40 H           2.6084    1.0051   -2.1590 H       1  UNL11       0.0314
     41 H           0.0109    0.9916   -0.5561 H       1  UNL11       0.0268
     42 H           1.1739    2.4214   -0.5639 H       1  UNL11       0.0268
     43 H          -0.8289    2.2618   -2.3360 H       1  UNL11       0.0269
     44 H           0.8110    2.9337   -2.7469 H       1  UNL11       0.0269
     45 H           1.3490    1.2351   -4.1936 H       1  UNL11       0.0316
     46 H          -0.4208    1.0658   -4.2577 H       1  UNL11       0.0316
     47 H           0.1806   -0.4443   -0.0735 H       1  UNL11       0.0628
     48 H          -0.7218   -0.0152   -0.3497 H       1  UNL11       0.0480
     49 H          -2.4199    0.3097   -1.0015 H       1  UNL11       0.0480
     50 H          -0.7848    1.2754   -2.4981 H       1  UNL11       0.0480
     51 H          -0.1103    2.2689   -1.0880 H       1  UNL11       0.0480
     52 H           0.0432    3.1651   -3.4170 H       1  UNL11       0.0652
     53 H           0.2234    4.9578   -5.1346 H       1  UNL11       0.0619
     54 H          -1.6255    6.5851   -5.4179 H       1  UNL11       0.0633
     55 H          -3.5559    6.3787   -4.0110 H       1  UNL11       0.0830
     56 H          -3.8560    3.5845   -0.9383 H       1  UNL11       0.0480
     57 H          -3.8487    1.8458   -1.2863 H       1  UNL11       0.0480
     58 H          -2.6072    3.3897    0.9806 H       1  UNL11       0.0480
     59 H          -3.8937    2.0309    0.9756 H       1  UNL11       0.0480
@<TRIPOS>BOND
     1     1     2    2
     2     2     3    1
     3     2    21   am
     4     3     4   ar
     5     4     5   ar
     6     4    33    1
     7     5     6   ar
     8     5    34    1
     9     6     7   ar
    10     6    35    1
    11     7     8    1
    12     7    20   ar
    13     8     9    1
    14     8    36    1
    15     8    37    1
    16     9    10    2
    17    10    11    1
    18    11    12   am
    19    11    38    1
    20    12    13    2
    21    12    14    1
    22    14    15    2
    23    15    16    1
    24    15     9    1
    25    16    17    1
    26    16    39    1
    27    16    40    1
    28    17    18    1
    29    17    41    1
    30    17    42    1
    31    18    19    1
    32    18    43    1
    33    18    44    1
    34    19    14    1
    35    19    45    1
    36    19    46    1
    37    20     3   ar
    38    20    47    1
    39    21    22    1
    40    22    23    1
    41    22    48    1
    42    22    49    1
    43    23    24    1
    44    23    50    1
    45    23    51    1
    46    24    25    1
    47    24    31    1
    48    25    26   ar
    49    26    27   ar
    50    26    52    1
    51    27    28   ar
    52    27    53    1
    53    28    29   ar
    54    28    54    1
    55    29    30   ar
    56    29    55    1
    57    30    25   ar
    58    31    32    1
    59    31    56    1
    60    31    57    1
    61    32    21    1
    62    32    58    1
    63    32    59    1
@<TRIPOS>MOLECULE
*****
 59 63 0 0 0
SMALL
GASTEIGER

@<TRIPOS>ATOM
      1 O          -1.8625    1.3608    2.8688 O.2     1  UNL11      -0.2700
      2 C          -1.1213    1.1791    1.7800 C.2     1  UNL11       0.2467
      3 C          -0.0128    0.2638    1.9168 C.ar    1  UNL11       0.0372
      4 C           0.5720    0.1646    3.1999 C.ar    1  UNL11      -0.0496
      5 C           1.6430   -0.6586    3.3810 C.ar    1  UNL11      -0.0608
      6 C           2.1775   -1.4009    2.3519 C.ar    1  UNL11      -0.0582
      7 C           1.6525   -1.3437    1.0881 C.ar    1  UNL11      -0.0407
      8 C           2.1622   -2.0994   -0.0926 C.3     1  UNL11       0.0208
      9 C           2.1253   -3.5479    0.0440 C.2     1  UNL11       0.1150
     10 N           1.6473   -4.1190    1.1950 N.2     1  UNL11      -0.0076
     11 N           1.5558   -5.4259    1.3276 N.am    1  UNL11      -0.0358
     12 C           1.9140   -6.2940    0.3691 C.2     1  UNL11       0.4340
     13 O           1.8168   -7.5417    0.5181 O.2     1  UNL11      -0.2120
     14 C           2.3985   -5.7960   -0.8009 C.2     1  UNL11       0.0740
     15 C           2.4942   -4.4029   -0.9339 C.2     1  UNL11      -0.0072
     16 C           3.0812   -3.9784   -2.2364 C.3     1  UNL11      -0.0252
     17 C           2.1783   -4.6016   -3.2933 C.3     1  UNL11      -0.0487
     18 C           2.4049   -6.0805   -3.2771 C.3     1  UNL11      -0.0484
     19 C           2.8303   -6.6272   -1.9555 C.3     1  UNL11      -0.0176
     20 C           0.5413   -0.4814    0.9243 C.ar    1  UNL11      -0.0461
     21 N          -1.5203    1.8965    0.6600 N.am    1  UNL11      -0.2945
     22 C          -2.7126    2.7553    0.8518 C.3     1  UNL11       0.0308
     23 C          -3.7891    2.1559   -0.0492 C.3     1  UNL11       0.0294
     24 N          -3.2541    2.1467   -1.4194 N.pl3   1  UNL11      -0.3122
     25 C          -4.1300    1.8024   -2.4648 C.ar    1  UNL11       0.1213
     26 C          -5.4525    1.4697   -2.3315 C.ar    1  UNL11      -0.0217
     27 C          -6.2767    1.1353   -3.4007 C.ar    1  UNL11      -0.0571
     28 C          -5.7708    1.1274   -4.6758 C.ar    1  UNL11      -0.0435
     29 C          -4.4199    1.4676   -4.8108 C.ar    1  UNL11       0.0297
     30 N          -3.6716    1.7807   -3.7530 N.ar    1  UNL11      -0.2403
     31 C          -1.8875    2.4867   -1.6438 C.3     1  UNL11       0.0294
     32 C          -0.9336    1.8555   -0.6136 C.3     1  UNL11       0.0308
     33 H           0.1633    0.7448    4.0433 H       1  UNL11       0.0625
     34 H           2.1183   -0.7600    4.3544 H       1  UNL11       0.0618
     35 H           3.0273   -2.0535    2.5602 H       1  UNL11       0.0620
     36 H           1.5881   -1.7124   -0.9620 H       1  UNL11       0.0379
     37 H           3.2235   -1.7668   -0.2921 H       1  UNL11       0.0379
     38 H           1.1873   -5.8197    2.2179 H       1  UNL11       0.4828
     39 H           3.0844   -2.9101   -2.3582 H       1  UNL11       0.0314
     40 H           4.1124   -4.4273   -2.3026 H       1  UNL11       0.0314
     41 H           1.1389   -4.3318   -2.9851 H       1  UNL11       0.0268
     42 H           2.4627   -4.1538   -4.2550 H       1  UNL11       0.0268
     43 H           1.4504   -6.5578   -3.6444 H       1  UNL11       0.0269
     44 H           3.2063   -6.2890   -4.0372 H       1  UNL11       0.0269
     45 H           3.9473   -6.7956   -1.9249 H       1  UNL11       0.0316
     46 H           2.3917   -7.6560   -1.8562 H       1  UNL11       0.0316
     47 H           0.1806   -0.4443   -0.0735 H       1  UNL11       0.0628
     48 H          -3.0255    2.7549    1.8921 H       1  UNL11       0.0480
     49 H          -2.4536    3.7531    0.4463 H       1  UNL11       0.0480
     50 H          -4.6448    2.8436   -0.0197 H       1  UNL11       0.0480
     51 H          -3.9783    1.1405    0.2728 H       1  UNL11       0.0480
     52 H          -5.8755    1.4688   -1.3221 H       1  UNL11       0.0652
     53 H          -7.3142    0.8770   -3.2653 H       1  UNL11       0.0619
     54 H          -6.3582    0.8757   -5.5529 H       1  UNL11       0.0633
     55 H          -4.0474    1.4532   -5.8267 H       1  UNL11       0.0830
     56 H          -1.4866    2.2090   -2.6313 H       1  UNL11       0.0480
     57 H          -1.7650    3.5854   -1.5488 H       1  UNL11       0.0480
     58 H          -0.7931    0.7985   -0.9552 H       1  UNL11       0.0480
     59 H           0.0143    2.4660   -0.6924 H       1  UNL11       0.0480
@<TRIPOS>BOND
     1     1     2    2
     2     2     3    1
     3     2    21   am
     4     3     4   ar
     5     4     5   ar
     6     4    33    1
     7     5     6   ar
     8     5    34    1
     9     6     7   ar
    10     6    35    1
    11     7     8    1
    12     7    20   ar
    13     8     9    1
    14     8    36    1
    15     8    37    1
    16     9    10    2
    17    10    11    1
    18    11    12   am
    19    11    38    1
    20    12    13    2
    21    12    14    1
    22    14    15    2
    23    15    16    1
    24    15     9    1
    25    16    17    1
    26    16    39    1
    27    16    40    1
    28    17    18    1
    29    17    41    1
    30    17    42    1
    31    18    19    1
    32    18    43    1
    33    18    44    1
    34    19    14    1
    35    19    45    1
    36    19    46    1
    37    20     3   ar
    38    20    47    1
    39    21    22    1
    40    22    23    1
    41    22    48    1
    42    22    49    1
    43    23    24    1
    44    23    50    1
    45    23    51    1
    46    24    25    1
    47    24    31    1
    48    25    26   ar
    49    26    27   ar
    50    26    52    1
    51    27    28   ar
    52    27    53    1
    53    28    29   ar
    54    28    54    1
    55    29    30   ar
    56    29    55    1
    57    30    25   ar
    58    31    32    1
    59    31    56    1
    60    31    57    1
    61    32    21    1
    62    32    58    1
    63    32    59    1
@<TRIPOS>MOLECULE
*****
 59 63 0 0 0
SMALL
GASTEIGER

@<TRIPOS>ATOM
      1 O          -1.2634    1.7451    0.5852 O.2     1  UNL11      -0.2700
      2 C          -1.1213    1.1791    1.7800 C.2     1  UNL11       0.2467
      3 C          -0.0128    0.2638    1.9168 C.ar    1  UNL11       0.0372
      4 C           0.5720    0.1646    3.1999 C.ar    1  UNL11      -0.0496
      5 C           1.6430   -0.6586    3.3810 C.ar    1  UNL11      -0.0608
      6 C           2.1775   -1.4009    2.3519 C.ar    1  UNL11      -0.0582
      7 C           1.6525   -1.3437    1.0881 C.ar    1  UNL11      -0.0407
      8 C           2.1622   -2.0994   -0.0926 C.3     1  UNL11       0.0208
      9 C           1.1516   -2.4485   -1.0800 C.2     1  UNL11       0.1150
     10 N           1.2621   -1.9942   -2.3687 N.2     1  UNL11      -0.0076
     11 N           0.3902   -2.3343   -3.2949 N.am    1  UNL11      -0.0358
     12 C          -0.6593   -3.1380   -3.0640 C.2     1  UNL11       0.4340
     13 O          -1.4812   -3.4508   -3.9669 O.2     1  UNL11      -0.2120
     14 C          -0.8312   -3.6254   -1.8053 C.2     1  UNL11       0.0740
     15 C           0.1010   -3.2574   -0.8239 C.2     1  UNL11      -0.0072
     16 C          -0.2165   -3.8125    0.5223 C.3     1  UNL11      -0.0252
     17 C          -0.2791   -5.3208    0.3180 C.3     1  UNL11      -0.0487
     18 C          -1.5071   -5.6257   -0.4806 C.3     1  UNL11      -0.0484
     19 C          -1.9386   -4.5290   -1.3958 C.3     1  UNL11      -0.0176
     20 C           0.5413   -0.4814    0.9243 C.ar    1  UNL11      -0.0461
     21 N          -2.0615    1.5508    2.7320 N.am    1  UNL11      -0.2945
     22 C          -1.8887    0.9296    4.0663 C.3     1  UNL11       0.0308
     23 C          -3.1163    0.0433    4.2593 C.3     1  UNL11       0.0294
     24 N          -4.3005    0.9069    4.1337 N.pl3   1  UNL11      -0.3122
     25 C          -5.5545    0.3532    4.4491 C.ar    1  UNL11       0.1213
     26 C          -6.7612    0.9984    4.3784 C.ar    1  UNL11      -0.0217
     27 C          -7.9756    0.4038    4.7035 C.ar    1  UNL11      -0.0571
     28 C          -8.0054   -0.9021    5.1230 C.ar    1  UNL11      -0.0435
     29 C          -6.7723   -1.5602    5.1946 C.ar    1  UNL11       0.0297
     30 N          -5.6347   -0.9449    4.8716 N.ar    1  UNL11      -0.2403
     31 C          -4.1438    2.2589    3.7081 C.3     1  UNL11       0.0294
     32 C          -3.1528    2.4109    2.5400 C.3     1  UNL11       0.0308
     33 H           0.1633    0.7448    4.0433 H       1  UNL11       0.0625
     34 H           2.1183   -0.7600    4.3544 H       1  UNL11       0.0618
     35 H           3.0273   -2.0535    2.5602 H       1  UNL11       0.0620
     36 H           2.9975   -1.4880   -0.4972 H       1  UNL11       0.0379
     37 H           2.6642   -3.0401    0.2814 H       1  UNL11       0.0379
     38 H           0.5099   -1.9678   -4.2617 H       1  UNL11       0.4828
     39 H           0.5406   -3.5846    1.2510 H       1  UNL11       0.0314
     40 H          -1.2330   -3.4245    0.8146 H       1  UNL11       0.0314
     41 H           0.6570   -5.5795   -0.2343 H       1  UNL11       0.0268
     42 H          -0.3175   -5.7733    1.3180 H       1  UNL11       0.0268
     43 H          -1.3000   -6.5847   -1.0385 H       1  UNL11       0.0269
     44 H          -2.3269   -5.8311    0.2603 H       1  UNL11       0.0269
     45 H          -2.7879   -3.9341   -0.9465 H       1  UNL11       0.0316
     46 H          -2.3858   -5.0048   -2.3092 H       1  UNL11       0.0316
     47 H           0.1806   -0.4443   -0.0735 H       1  UNL11       0.0628
     48 H          -0.9728    0.3467    4.1052 H       1  UNL11       0.0480
     49 H          -1.9475    1.7500    4.8083 H       1  UNL11       0.0480
     50 H          -3.0748   -0.3340    5.2899 H       1  UNL11       0.0480
     51 H          -3.1267   -0.7022    3.4754 H       1  UNL11       0.0480
     52 H          -6.7594    2.0415    4.0469 H       1  UNL11       0.0652
     53 H          -8.9100    0.9368    4.6388 H       1  UNL11       0.0619
     54 H          -8.9172   -1.4253    5.3922 H       1  UNL11       0.0633
     55 H          -6.8250   -2.5883    5.5283 H       1  UNL11       0.0830
     56 H          -5.0676    2.7631    3.3835 H       1  UNL11       0.0480
     57 H          -3.7318    2.8591    4.5456 H       1  UNL11       0.0480
     58 H          -3.7325    2.1234    1.6263 H       1  UNL11       0.0480
     59 H          -2.8703    3.5052    2.5474 H       1  UNL11       0.0480
@<TRIPOS>BOND
     1     1     2    2
     2     2     3    1
     3     2    21   am
     4     3     4   ar
     5     4     5   ar
     6     4    33    1
     7     5     6   ar
     8     5    34    1
     9     6     7   ar
    10     6    35    1
    11     7     8    1
    12     7    20   ar
    13     8     9    1
    14     8    36    1
    15     8    37    1
    16     9    10    2
    17    10    11    1
    18    11    12   am
    19    11    38    1
    20    12    13    2
    21    12    14    1
    22    14    15    2
    23    15    16    1
    24    15     9    1
    25    16    17    1
    26    16    39    1
    27    16    40    1
    28    17    18    1
    29    17    41    1
    30    17    42    1
    31    18    19    1
    32    18    43    1
    33    18    44    1
    34    19    14    1
    35    19    45    1
    36    19    46    1
    37    20     3   ar
    38    20    47    1
    39    21    22    1
    40    22    23    1
    41    22    48    1
    42    22    49    1
    43    23    24    1
    44    23    50    1
    45    23    51    1
    46    24    25    1
    47    24    31    1
    48    25    26   ar
    49    26    27   ar
    50    26    52    1
    51    27    28   ar
    52    27    53    1
    53    28    29   ar
    54    28    54    1
    55    29    30   ar
    56    29    55    1
    57    30    25   ar
    58    31    32    1
    59    31    56    1
    60    31    57    1
    61    32    21    1
    62    32    58    1
    63    32    59    1
@<TRIPOS>MOLECULE
*****
 59 63 0 0 0
SMALL
GASTEIGER

@<TRIPOS>ATOM
      1 O          -1.2634    1.7451    0.5852 O.2     1  UNL11      -0.2700
      2 C          -1.1213    1.1791    1.7800 C.2     1  UNL11       0.2467
      3 C          -0.0128    0.2638    1.9168 C.ar    1  UNL11       0.0372
      4 C           0.5720    0.1646    3.1999 C.ar    1  UNL11      -0.0496
      5 C           1.6430   -0.6586    3.3810 C.ar    1  UNL11      -0.0608
      6 C           2.1775   -1.4009    2.3519 C.ar    1  UNL11      -0.0582
      7 C           1.6525   -1.3437    1.0881 C.ar    1  UNL11      -0.0407
      8 C           2.1622   -2.0994   -0.0926 C.3     1  UNL11       0.0208
      9 C           3.1756   -1.4058   -0.8736 C.2     1  UNL11       0.1150
     10 N           3.2809   -1.6326   -2.2216 N.2     1  UNL11      -0.0076
     11 N           4.1548   -0.9830   -2.9620 N.am    1  UNL11      -0.0358
     12 C           4.9999   -0.0624   -2.4732 C.2     1  UNL11       0.4340
     13 O           5.8280    0.5477   -3.2015 O.2     1  UNL11      -0.2120
     14 C           4.9509    0.2126   -1.1414 C.2     1  UNL11       0.0740
     15 C           4.0183   -0.4845   -0.3592 C.2     1  UNL11      -0.0072
     16 C           4.0899   -0.1341    1.0876 C.3     1  UNL11      -0.0252
     17 C           3.8761    1.3734    1.1355 C.3     1  UNL11      -0.0487
     18 C           5.0921    2.0284    0.5602 C.3     1  UNL11      -0.0484
     19 C           5.8158    1.2080   -0.4545 C.3     1  UNL11      -0.0176
     20 C           0.5413   -0.4814    0.9243 C.ar    1  UNL11      -0.0461
     21 N          -2.0615    1.5508    2.7320 N.am    1  UNL11      -0.2945
     22 C          -1.8887    0.9296    4.0663 C.3     1  UNL11       0.0308
     23 C          -3.1163    0.0433    4.2593 C.3     1  UNL11       0.0294
     24 N          -4.3005    0.9069    4.1337 N.pl3   1  UNL11      -0.3122
     25 C          -5.5545    0.3532    4.4491 C.ar    1  UNL11       0.1213
     26 C          -5.9106   -0.9633    4.3160 C.ar    1  UNL11      -0.0217
     27 C          -7.1678   -1.4605    4.6422 C.ar    1  UNL11      -0.0571
     28 C          -8.1316   -0.6135    5.1277 C.ar    1  UNL11      -0.0435
     29 C          -7.7668    0.7309    5.2634 C.ar    1  UNL11       0.0297
     30 N          -6.5470    1.1578    4.9361 N.ar    1  UNL11      -0.2403
     31 C          -4.1438    2.2589    3.7081 C.3     1  UNL11       0.0294
     32 C          -3.1528    2.4109    2.5400 C.3     1  UNL11       0.0308
     33 H           0.1633    0.7448    4.0433 H       1  UNL11       0.0625
     34 H           2.1183   -0.7600    4.3544 H       1  UNL11       0.0618
     35 H           3.0273   -2.0535    2.5602 H       1  UNL11       0.0620
     36 H           2.4929   -3.0829    0.3057 H       1  UNL11       0.0379
     37 H           1.2827   -2.3514   -0.7558 H       1  UNL11       0.0379
     38 H           4.2029   -1.1845   -3.9820 H       1  UNL11       0.4828
     39 H           3.3251   -0.6192    1.6673 H       1  UNL11       0.0314
     40 H           5.1295   -0.3836    1.4428 H       1  UNL11       0.0314
     41 H           2.9653    1.5588    0.5156 H       1  UNL11       0.0268
     42 H           3.7287    1.6377    2.1913 H       1  UNL11       0.0268
     43 H           4.7565    3.0206    0.1399 H       1  UNL11       0.0269
     44 H           5.7806    2.2378    1.4236 H       1  UNL11       0.0269
     45 H           6.7175    0.7005   -0.0001 H       1  UNL11       0.0316
     46 H           6.2474    1.9117   -1.2154 H       1  UNL11       0.0316
     47 H           0.1806   -0.4443   -0.0735 H       1  UNL11       0.0628
     48 H          -0.9728    0.3467    4.1052 H       1  UNL11       0.0480
     49 H          -1.9475    1.7500    4.8083 H       1  UNL11       0.0480
     50 H          -3.0748   -0.3340    5.2899 H       1  UNL11       0.0480
     51 H          -3.1267   -0.7022    3.4754 H       1  UNL11       0.0480
     52 H          -5.1563   -1.6556    3.9292 H       1  UNL11       0.0652
     53 H          -7.4198   -2.5018    4.5263 H       1  UNL11       0.0619
     54 H          -9.1314   -0.9355    5.4004 H       1  UNL11       0.0633
     55 H          -8.5457    1.3761    5.6480 H       1  UNL11       0.0830
     56 H          -5.0676    2.7631    3.3835 H       1  UNL11       0.0480
     57 H          -3.7318    2.8591    4.5456 H       1  UNL11       0.0480
     58 H          -3.7325    2.1234    1.6263 H       1  UNL11       0.0480
     59 H          -2.8703    3.5052    2.5474 H       1  UNL11       0.0480
@<TRIPOS>BOND
     1     1     2    2
     2     2     3    1
     3     2    21   am
     4     3     4   ar
     5     4     5   ar
     6     4    33    1
     7     5     6   ar
     8     5    34    1
     9     6     7   ar
    10     6    35    1
    11     7     8    1
    12     7    20   ar
    13     8     9    1
    14     8    36    1
    15     8    37    1
    16     9    10    2
    17    10    11    1
    18    11    12   am
    19    11    38    1
    20    12    13    2
    21    12    14    1
    22    14    15    2
    23    15    16    1
    24    15     9    1
    25    16    17    1
    26    16    39    1
    27    16    40    1
    28    17    18    1
    29    17    41    1
    30    17    42    1
    31    18    19    1
    32    18    43    1
    33    18    44    1
    34    19    14    1
    35    19    45    1
    36    19    46    1
    37    20     3   ar
    38    20    47    1
    39    21    22    1
    40    22    23    1
    41    22    48    1
    42    22    49    1
    43    23    24    1
    44    23    50    1
    45    23    51    1
    46    24    25    1
    47    24    31    1
    48    25    26   ar
    49    26    27   ar
    50    26    52    1
    51    27    28   ar
    52    27    53    1
    53    28    29   ar
    54    28    54    1
    55    29    30   ar
    56    29    55    1
    57    30    25   ar
    58    31    32    1
    59    31    56    1
    60    31    57    1
    61    32    21    1
    62    32    58    1
    63    32    59    1
@<TRIPOS>MOLECULE
*****
 59 63 0 0 0
SMALL
GASTEIGER

@<TRIPOS>ATOM
      1 O          -1.6700    1.2505    0.5709 O.2     1  UNL11      -0.2700
      2 C          -1.1213    1.1791    1.7800 C.2     1  UNL11       0.2467
      3 C          -0.0128    0.2638    1.9168 C.ar    1  UNL11       0.0372
      4 C           0.5720    0.1646    3.1999 C.ar    1  UNL11      -0.0496
      5 C           1.6430   -0.6586    3.3810 C.ar    1  UNL11      -0.0608
      6 C           2.1775   -1.4009    2.3519 C.ar    1  UNL11      -0.0582
      7 C           1.6525   -1.3437    1.0881 C.ar    1  UNL11      -0.0407
      8 C           2.1622   -2.0994   -0.0926 C.3     1  UNL11       0.0208
      9 C           3.1756   -1.4058   -0.8736 C.2     1  UNL11       0.1150
     10 N           4.0199   -0.5118   -0.2673 N.2     1  UNL11      -0.0076
     11 N           4.9779    0.0931   -0.9383 N.am    1  UNL11      -0.0358
     12 C           5.2071   -0.1082   -2.2450 C.2     1  UNL11       0.4340
     13 O           6.1311    0.4818   -2.8668 O.2     1  UNL11      -0.2120
     14 C           4.4055   -0.9830   -2.9111 C.2     1  UNL11       0.0740
     15 C           3.3864   -1.6223   -2.1898 C.2     1  UNL11      -0.0072
     16 C           2.5463   -2.5189   -3.0333 C.3     1  UNL11      -0.0252
     17 C           3.5278   -3.5069   -3.6507 C.3     1  UNL11      -0.0487
     18 C           4.3566   -2.7661   -4.6521 C.3     1  UNL11      -0.0484
     19 C           4.5372   -1.3152   -4.3543 C.3     1  UNL11      -0.0176
     20 C           0.5413   -0.4814    0.9243 C.ar    1  UNL11      -0.0461
     21 N          -1.6926    1.9993    2.7440 N.am    1  UNL11      -0.2945
     22 C          -1.0668    1.9278    4.0854 C.3     1  UNL11       0.0308
     23 C          -2.1385    1.3379    4.9983 C.3     1  UNL11       0.0294
     24 N          -3.3134    2.2193    4.9159 N.pl3   1  UNL11      -0.3122
     25 C          -4.3756    1.9840    5.8076 C.ar    1  UNL11       0.1213
     26 C          -5.2317    2.9293    6.3086 C.ar    1  UNL11      -0.0217
     27 C          -6.2680    2.6432    7.1908 C.ar    1  UNL11      -0.0571
     28 C          -6.4747    1.3518    7.6049 C.ar    1  UNL11      -0.0435
     29 C          -5.5998    0.3871    7.0924 C.ar    1  UNL11       0.0297
     30 N          -4.6208    0.7130    6.2484 N.ar    1  UNL11      -0.2403
     31 C          -3.3378    3.2719    3.9541 C.3     1  UNL11       0.0294
     32 C          -2.8024    2.8407    2.5768 C.3     1  UNL11       0.0308
     33 H           0.1633    0.7448    4.0433 H       1  UNL11       0.0625
     34 H           2.1183   -0.7600    4.3544 H       1  UNL11       0.0618
     35 H           3.0273   -2.0535    2.5602 H       1  UNL11       0.0620
     36 H           2.4929   -3.0829    0.3057 H       1  UNL11       0.0379
     37 H           1.2827   -2.3514   -0.7558 H       1  UNL11       0.0379
     38 H           5.5977    0.7651   -0.4407 H       1  UNL11       0.4828
     39 H           1.8144   -3.0582   -2.4591 H       1  UNL11       0.0314
     40 H           2.0843   -1.8844   -3.8415 H       1  UNL11       0.0314
     41 H           4.1391   -3.8842   -2.7951 H       1  UNL11       0.0268
     42 H           2.9266   -4.2970   -4.1203 H       1  UNL11       0.0268
     43 H           5.3435   -3.3095   -4.7201 H       1  UNL11       0.0269
     44 H           3.8361   -2.8769   -5.6421 H       1  UNL11       0.0269
     45 H           3.8329   -0.6821   -4.9710 H       1  UNL11       0.0316
     46 H           5.5601   -1.0198   -4.7107 H       1  UNL11       0.0316
     47 H           0.1806   -0.4443   -0.0735 H       1  UNL11       0.0628
     48 H          -0.1795    1.3013    4.0646 H       1  UNL11       0.0480
     49 H          -0.8889    2.9723    4.4086 H       1  UNL11       0.0480
     50 H          -1.7438    1.3873    6.0219 H       1  UNL11       0.0480
     51 H          -2.3973    0.3539    4.6307 H       1  UNL11       0.0480
     52 H          -5.0831    3.9663    5.9915 H       1  UNL11       0.0652
     53 H          -6.9259    3.4083    7.5692 H       1  UNL11       0.0619
     54 H          -7.2632    1.0606    8.2912 H       1  UNL11       0.0633
     55 H          -5.7855   -0.6223    7.4355 H       1  UNL11       0.0830
     56 H          -4.3272    3.7167    3.7641 H       1  UNL11       0.0480
     57 H          -2.6799    4.0962    4.2993 H       1  UNL11       0.0480
     58 H          -3.6503    2.2926    2.0927 H       1  UNL11       0.0480
     59 H          -2.5569    3.8105    2.0508 H       1  UNL11       0.0480
@<TRIPOS>BOND
     1     1     2    2
     2     2     3    1
     3     2    21   am
     4     3     4   ar
     5     4     5   ar
     6     4    33    1
     7     5     6   ar
     8     5    34    1
     9     6     7   ar
    10     6    35    1
    11     7     8    1
    12     7    20   ar
    13     8     9    1
    14     8    36    1
    15     8    37    1
    16     9    10    2
    17    10    11    1
    18    11    12   am
    19    11    38    1
    20    12    13    2
    21    12    14    1
    22    14    15    2
    23    15    16    1
    24    15     9    1
    25    16    17    1
    26    16    39    1
    27    16    40    1
    28    17    18    1
    29    17    41    1
    30    17    42    1
    31    18    19    1
    32    18    43    1
    33    18    44    1
    34    19    14    1
    35    19    45    1
    36    19    46    1
    37    20     3   ar
    38    20    47    1
    39    21    22    1
    40    22    23    1
    41    22    48    1
    42    22    49    1
    43    23    24    1
    44    23    50    1
    45    23    51    1
    46    24    25    1
    47    24    31    1
    48    25    26   ar
    49    26    27   ar
    50    26    52    1
    51    27    28   ar
    52    27    53    1
    53    28    29   ar
    54    28    54    1
    55    29    30   ar
    56    29    55    1
    57    30    25   ar
    58    31    32    1
    59    31    56    1
    60    31    57    1
    61    32    21    1
    62    32    58    1
    63    32    59    1
@<TRIPOS>MOLECULE
*****
 59 63 0 0 0
SMALL
GASTEIGER

@<TRIPOS>ATOM
      1 O          -2.0323    0.8560    0.8669 O.2     1  UNL11      -0.2700
      2 C          -1.1213    1.1791    1.7800 C.2     1  UNL11       0.2467
      3 C          -0.0128    0.2638    1.9168 C.ar    1  UNL11       0.0372
      4 C           0.5720    0.1646    3.1999 C.ar    1  UNL11      -0.0496
      5 C           1.6430   -0.6586    3.3810 C.ar    1  UNL11      -0.0608
      6 C           2.1775   -1.4009    2.3519 C.ar    1  UNL11      -0.0582
      7 C           1.6525   -1.3437    1.0881 C.ar    1  UNL11      -0.0407
      8 C           2.1622   -2.0994   -0.0926 C.3     1  UNL11       0.0208
      9 C           1.5562   -3.4076   -0.2915 C.2     1  UNL11       0.1150
     10 N           1.4285   -3.9223   -1.5557 N.2     1  UNL11      -0.0076
     11 N           0.9300   -5.1234   -1.7620 N.am    1  UNL11      -0.0358
     12 C           0.5128   -5.9312   -0.7751 C.2     1  UNL11       0.4340
     13 O           0.0393   -7.0780   -0.9964 O.2     1  UNL11      -0.2120
     14 C           0.6094   -5.4836    0.5063 C.2     1  UNL11       0.0740
     15 C           1.1403   -4.2026    0.7178 C.2     1  UNL11      -0.0072
     16 C           1.1526   -3.8040    2.1538 C.3     1  UNL11      -0.0252
     17 C           1.9603   -4.8896    2.8535 C.3     1  UNL11      -0.0487
     18 C           1.1445   -6.1439    2.8495 C.3     1  UNL11      -0.0484
     19 C           0.1958   -6.2616    1.7039 C.3     1  UNL11      -0.0176
     20 C           0.5413   -0.4814    0.9243 C.ar    1  UNL11      -0.0461
     21 N          -1.3643    2.3567    2.4747 N.am    1  UNL11      -0.2945
     22 C          -0.3376    2.7204    3.4795 C.3     1  UNL11       0.0308
     23 C          -1.0468    2.6347    4.8285 C.3     1  UNL11       0.0294
     24 N          -2.2000    3.5463    4.7723 N.pl3   1  UNL11      -0.3122
     25 C          -2.9130    3.7784    5.9624 C.ar    1  UNL11       0.1213
     26 C          -3.0546    2.8970    7.0020 C.ar    1  UNL11      -0.0217
     27 C          -3.7731    3.1764    8.1595 C.ar    1  UNL11      -0.0571
     28 C          -4.3889    4.3939    8.3033 C.ar    1  UNL11      -0.0435
     29 C          -4.2435    5.2934    7.2409 C.ar    1  UNL11       0.0297
     30 N          -3.5435    4.9770    6.1514 N.ar    1  UNL11      -0.2403
     31 C          -2.5515    4.1615    3.5348 C.3     1  UNL11       0.0294
     32 C          -2.4826    3.1927    2.3405 C.3     1  UNL11       0.0308
     33 H           0.1633    0.7448    4.0433 H       1  UNL11       0.0625
     34 H           2.1183   -0.7600    4.3544 H       1  UNL11       0.0618
     35 H           3.0273   -2.0535    2.5602 H       1  UNL11       0.0620
     36 H           2.0458   -1.4110   -0.9573 H       1  UNL11       0.0379
     37 H           3.2806   -2.2155    0.0197 H       1  UNL11       0.0379
     38 H           0.8500   -5.4775   -2.7375 H       1  UNL11       0.4828
     39 H           1.6260   -2.8517    2.3130 H       1  UNL11       0.0314
     40 H           0.0868   -3.8267    2.5181 H       1  UNL11       0.0314
     41 H           2.8945   -4.9933    2.2496 H       1  UNL11       0.0268
     42 H           2.1548   -4.5304    3.8730 H       1  UNL11       0.0268
     43 H           1.8742   -7.0042    2.8839 H       1  UNL11       0.0269
     44 H           0.5631   -6.1497    3.8113 H       1  UNL11       0.0269
     45 H          -0.8540   -5.9806    2.0138 H       1  UNL11       0.0316
     46 H           0.1235   -7.3488    1.4327 H       1  UNL11       0.0316
     47 H           0.1806   -0.4443   -0.0735 H       1  UNL11       0.0628
     48 H           0.5058    2.0372    3.4346 H       1  UNL11       0.0480
     49 H          -0.0824    3.7837    3.3019 H       1  UNL11       0.0480
     50 H          -0.3435    3.0172    5.5802 H       1  UNL11       0.0480
     51 H          -1.3938    1.6197    4.9686 H       1  UNL11       0.0480
     52 H          -2.5718    1.9194    6.9067 H       1  UNL11       0.0652
     53 H          -3.8679    2.4626    8.9613 H       1  UNL11       0.0619
     54 H          -4.9646    4.6755    9.1790 H       1  UNL11       0.0633
     55 H          -4.7391    6.2451    7.3807 H       1  UNL11       0.0830
     56 H          -3.5566    4.6102    3.4978 H       1  UNL11       0.0480
     57 H          -1.8313    4.9769    3.3157 H       1  UNL11       0.0480
     58 H          -3.4321    2.6013    2.3894 H       1  UNL11       0.0480
     59 H          -2.4365    3.8639    1.4322 H       1  UNL11       0.0480
@<TRIPOS>BOND
     1     1     2    2
     2     2     3    1
     3     2    21   am
     4     3     4   ar
     5     4     5   ar
     6     4    33    1
     7     5     6   ar
     8     5    34    1
     9     6     7   ar
    10     6    35    1
    11     7     8    1
    12     7    20   ar
    13     8     9    1
    14     8    36    1
    15     8    37    1
    16     9    10    2
    17    10    11    1
    18    11    12   am
    19    11    38    1
    20    12    13    2
    21    12    14    1
    22    14    15    2
    23    15    16    1
    24    15     9    1
    25    16    17    1
    26    16    39    1
    27    16    40    1
    28    17    18    1
    29    17    41    1
    30    17    42    1
    31    18    19    1
    32    18    43    1
    33    18    44    1
    34    19    14    1
    35    19    45    1
    36    19    46    1
    37    20     3   ar
    38    20    47    1
    39    21    22    1
    40    22    23    1
    41    22    48    1
    42    22    49    1
    43    23    24    1
    44    23    50    1
    45    23    51    1
    46    24    25    1
    47    24    31    1
    48    25    26   ar
    49    26    27   ar
    50    26    52    1
    51    27    28   ar
    52    27    53    1
    53    28    29   ar
    54    28    54    1
    55    29    30   ar
    56    29    55    1
    57    30    25   ar
    58    31    32    1
    59    31    56    1
    60    31    57    1
    61    32    21    1
    62    32    58    1
    63    32    59    1
@<TRIPOS>MOLECULE
*****
 59 63 0 0 0
SMALL
GASTEIGER

@<TRIPOS>ATOM
      1 O          -1.2634    1.7451    0.5852 O.2     1  UNL11      -0.2700
      2 C          -1.1213    1.1791    1.7800 C.2     1  UNL11       0.2467
      3 C          -0.0128    0.2638    1.9168 C.ar    1  UNL11       0.0372
      4 C           0.5720    0.1646    3.1999 C.ar    1  UNL11      -0.0496
      5 C           1.6430   -0.6586    3.3810 C.ar    1  UNL11      -0.0608
      6 C           2.1775   -1.4009    2.3519 C.ar    1  UNL11      -0.0582
      7 C           1.6525   -1.3437    1.0881 C.ar    1  UNL11      -0.0407
      8 C           2.1622   -2.0994   -0.0926 C.3     1  UNL11       0.0208
      9 C           1.2006   -3.0061   -0.7020 C.2     1  UNL11       0.1150
     10 N           0.3833   -2.5664   -1.7110 N.2     1  UNL11      -0.0076
     11 N          -0.4611   -3.3768   -2.3145 N.am    1  UNL11      -0.0358
     12 C          -0.5926   -4.6751   -2.0021 C.2     1  UNL11       0.4340
     13 O          -1.4076   -5.4325   -2.5942 O.2     1  UNL11      -0.2120
     14 C           0.1878   -5.1794   -1.0079 C.2     1  UNL11       0.0740
     15 C           1.0837   -4.3096   -0.3690 C.2     1  UNL11      -0.0072
     16 C           1.8485   -4.9619    0.7314 C.3     1  UNL11      -0.0252
     17 C           2.5540   -6.1398    0.0717 C.3     1  UNL11      -0.0487
     18 C           1.5162   -7.1588   -0.2798 C.3     1  UNL11      -0.0484
     19 C           0.1621   -6.5945   -0.5525 C.3     1  UNL11      -0.0176
     20 C           0.5413   -0.4814    0.9243 C.ar    1  UNL11      -0.0461
     21 N          -2.0615    1.5508    2.7320 N.am    1  UNL11      -0.2945
     22 C          -1.8887    0.9296    4.0663 C.3     1  UNL11       0.0308
     23 C          -3.1163    0.0433    4.2593 C.3     1  UNL11       0.0294
     24 N          -4.3005    0.9069    4.1337 N.pl3   1  UNL11      -0.3122
     25 C          -5.5545    0.3532    4.4491 C.ar    1  UNL11       0.1213
     26 C          -5.9106   -0.9633    4.3160 C.ar    1  UNL11      -0.0217
     27 C          -7.1678   -1.4605    4.6422 C.ar    1  UNL11      -0.0571
     28 C          -8.1316   -0.6135    5.1277 C.ar    1  UNL11      -0.0435
     29 C          -7.7668    0.7309    5.2634 C.ar    1  UNL11       0.0297
     30 N          -6.5470    1.1578    4.9361 N.ar    1  UNL11      -0.2403
     31 C          -4.1438    2.2589    3.7081 C.3     1  UNL11       0.0294
     32 C          -3.1528    2.4109    2.5400 C.3     1  UNL11       0.0308
     33 H           0.1633    0.7448    4.0433 H       1  UNL11       0.0625
     34 H           2.1183   -0.7600    4.3544 H       1  UNL11       0.0618
     35 H           3.0273   -2.0535    2.5602 H       1  UNL11       0.0620
     36 H           2.5606   -1.3290   -0.7876 H       1  UNL11       0.0379
     37 H           3.0763   -2.6806    0.2292 H       1  UNL11       0.0379
     38 H          -1.0642   -3.0034   -3.0762 H       1  UNL11       0.4828
     39 H           2.5824   -4.3078    1.1671 H       1  UNL11       0.0314
     40 H           1.0994   -5.3385    1.4840 H       1  UNL11       0.0314
     41 H           3.0489   -5.7133   -0.8345 H       1  UNL11       0.0268
     42 H           3.2758   -6.5257    0.8042 H       1  UNL11       0.0268
     43 H           1.9178   -7.7384   -1.1610 H       1  UNL11       0.0269
     44 H           1.4525   -7.8638    0.5932 H       1  UNL11       0.0269
     45 H          -0.5149   -6.7081    0.3451 H       1  UNL11       0.0316
     46 H          -0.3177   -7.2299   -1.3442 H       1  UNL11       0.0316
     47 H           0.1806   -0.4443   -0.0735 H       1  UNL11       0.0628
     48 H          -0.9728    0.3467    4.1052 H       1  UNL11       0.0480
     49 H          -1.9475    1.7500    4.8083 H       1  UNL11       0.0480
     50 H          -3.0748   -0.3340    5.2899 H       1  UNL11       0.0480
     51 H          -3.1267   -0.7022    3.4754 H       1  UNL11       0.0480
     52 H          -5.1563   -1.6556    3.9292 H       1  UNL11       0.0652
     53 H          -7.4198   -2.5018    4.5263 H       1  UNL11       0.0619
     54 H          -9.1314   -0.9355    5.4004 H       1  UNL11       0.0633
     55 H          -8.5457    1.3761    5.6480 H       1  UNL11       0.0830
     56 H          -5.0676    2.7631    3.3835 H       1  UNL11       0.0480
     57 H          -3.7318    2.8591    4.5456 H       1  UNL11       0.0480
     58 H          -3.7325    2.1234    1.6263 H       1  UNL11       0.0480
     59 H          -2.8703    3.5052    2.5474 H       1  UNL11       0.0480
@<TRIPOS>BOND
     1     1     2    2
     2     2     3    1
     3     2    21   am
     4     3     4   ar
     5     4     5   ar
     6     4    33    1
     7     5     6   ar
     8     5    34    1
     9     6     7   ar
    10     6    35    1
    11     7     8    1
    12     7    20   ar
    13     8     9    1
    14     8    36    1
    15     8    37    1
    16     9    10    2
    17    10    11    1
    18    11    12   am
    19    11    38    1
    20    12    13    2
    21    12    14    1
    22    14    15    2
    23    15    16    1
    24    15     9    1
    25    16    17    1
    26    16    39    1
    27    16    40    1
    28    17    18    1
    29    17    41    1
    30    17    42    1
    31    18    19    1
    32    18    43    1
    33    18    44    1
    34    19    14    1
    35    19    45    1
    36    19    46    1
    37    20     3   ar
    38    20    47    1
    39    21    22    1
    40    22    23    1
    41    22    48    1
    42    22    49    1
    43    23    24    1
    44    23    50    1
    45    23    51    1
    46    24    25    1
    47    24    31    1
    48    25    26   ar
    49    26    27   ar
    50    26    52    1
    51    27    28   ar
    52    27    53    1
    53    28    29   ar
    54    28    54    1
    55    29    30   ar
    56    29    55    1
    57    30    25   ar
    58    31    32    1
    59    31    56    1
    60    31    57    1
    61    32    21    1
    62    32    58    1
    63    32    59    1
@<TRIPOS>MOLECULE
*****
 59 63 0 0 0
SMALL
GASTEIGER

@<TRIPOS>ATOM
      1 O          -1.8625    1.3608    2.8688 O.2     1  UNL11      -0.2700
      2 C          -1.1213    1.1791    1.7800 C.2     1  UNL11       0.2467
      3 C          -0.0128    0.2638    1.9168 C.ar    1  UNL11       0.0372
      4 C           0.5720    0.1646    3.1999 C.ar    1  UNL11      -0.0496
      5 C           1.6430   -0.6586    3.3810 C.ar    1  UNL11      -0.0608
      6 C           2.1775   -1.4009    2.3519 C.ar    1  UNL11      -0.0582
      7 C           1.6525   -1.3437    1.0881 C.ar    1  UNL11      -0.0407
      8 C           2.1622   -2.0994   -0.0926 C.3     1  UNL11       0.0208
      9 C           2.6031   -1.2725   -1.2061 C.2     1  UNL11       0.1150
     10 N           3.6063   -1.7083   -2.0326 N.2     1  UNL11      -0.0076
     11 N           3.9918   -1.0045   -3.0766 N.am    1  UNL11      -0.0358
     12 C           3.4485    0.1746   -3.4158 C.2     1  UNL11       0.4340
     13 O           3.8334    0.8308   -4.4206 O.2     1  UNL11      -0.2120
     14 C           2.4470    0.6686   -2.6381 C.2     1  UNL11       0.0740
     15 C           2.0430   -0.0864   -1.5271 C.2     1  UNL11      -0.0072
     16 C           0.9747    0.5762   -0.7265 C.3     1  UNL11      -0.0252
     17 C          -0.1625    0.8123   -1.7123 C.3     1  UNL11      -0.0487
     18 C           0.2700    1.8820   -2.6650 C.3     1  UNL11      -0.0484
     19 C           1.7437    1.9547   -2.8867 C.3     1  UNL11      -0.0176
     20 C           0.5413   -0.4814    0.9243 C.ar    1  UNL11      -0.0461
     21 N          -1.5203    1.8965    0.6600 N.am    1  UNL11      -0.2945
     22 C          -0.7006    1.6778   -0.5551 C.3     1  UNL11       0.0308
     23 C          -0.0297    3.0200   -0.8347 C.3     1  UNL11       0.0294
     24 N          -1.0999    4.0176   -0.9883 N.pl3   1  UNL11      -0.3122
     25 C          -0.7409    5.3043   -1.4290 C.ar    1  UNL11       0.1213
     26 C          -1.5252    6.1513   -2.1672 C.ar    1  UNL11      -0.0217
     27 C          -1.1209    7.4166   -2.5792 C.ar    1  UNL11      -0.0571
     28 C           0.1281    7.8760   -2.2460 C.ar    1  UNL11      -0.0435
     29 C           0.9283    7.0101   -1.4918 C.ar    1  UNL11       0.0297
     30 N           0.4937    5.8055   -1.1215 N.ar    1  UNL11      -0.2403
     31 C          -2.4477    3.6549   -0.6960 C.3     1  UNL11       0.0294
     32 C          -2.5795    2.8131    0.5861 C.3     1  UNL11       0.0308
     33 H           0.1633    0.7448    4.0433 H       1  UNL11       0.0625
     34 H           2.1183   -0.7600    4.3544 H       1  UNL11       0.0618
     35 H           3.0273   -2.0535    2.5602 H       1  UNL11       0.0620
     36 H           2.9477   -2.7769    0.3063 H       1  UNL11       0.0379
     37 H           1.3460   -2.7982   -0.4424 H       1  UNL11       0.0379
     38 H           4.7573   -1.3708   -3.6792 H       1  UNL11       0.4828
     39 H           0.6220   -0.0407    0.0804 H       1  UNL11       0.0314
     40 H           1.3840    1.5643   -0.3724 H       1  UNL11       0.0314
     41 H          -0.3145   -0.1696   -2.2231 H       1  UNL11       0.0268
     42 H          -1.0349    1.1192   -1.1199 H       1  UNL11       0.0268
     43 H          -0.2938    1.7055   -3.6266 H       1  UNL11       0.0269
     44 H          -0.0862    2.8568   -2.2335 H       1  UNL11       0.0269
     45 H           2.2075    2.7831   -2.2738 H       1  UNL11       0.0316
     46 H           1.9121    2.2695   -3.9512 H       1  UNL11       0.0316
     47 H           0.1806   -0.4443   -0.0735 H       1  UNL11       0.0628
     48 H           0.0362    0.8971   -0.3884 H       1  UNL11       0.0480
     49 H          -1.4083    1.4777   -1.3835 H       1  UNL11       0.0480
     50 H           0.4871    2.9203   -1.7986 H       1  UNL11       0.0480
     51 H           0.5868    3.2782    0.0159 H       1  UNL11       0.0480
     52 H          -2.5251    5.8034   -2.4445 H       1  UNL11       0.0652
     53 H          -1.7598    8.0613   -3.1601 H       1  UNL11       0.0619
     54 H           0.5058    8.8513   -2.5355 H       1  UNL11       0.0633
     55 H           1.9077    7.3976   -1.2434 H       1  UNL11       0.0830
     56 H          -3.1485    4.4957   -0.5746 H       1  UNL11       0.0480
     57 H          -2.8435    3.0280   -1.5217 H       1  UNL11       0.0480
     58 H          -2.5287    3.5514    1.4263 H       1  UNL11       0.0480
     59 H          -3.5942    2.3226    0.5011 H       1  UNL11       0.0480
@<TRIPOS>BOND
     1     1     2    2
     2     2     3    1
     3     2    21   am
     4     3     4   ar
     5     4     5   ar
     6     4    33    1
     7     5     6   ar
     8     5    34    1
     9     6     7   ar
    10     6    35    1
    11     7     8    1
    12     7    20   ar
    13     8     9    1
    14     8    36    1
    15     8    37    1
    16     9    10    2
    17    10    11    1
    18    11    12   am
    19    11    38    1
    20    12    13    2
    21    12    14    1
    22    14    15    2
    23    15    16    1
    24    15     9    1
    25    16    17    1
    26    16    39    1
    27    16    40    1
    28    17    18    1
    29    17    41    1
    30    17    42    1
    31    18    19    1
    32    18    43    1
    33    18    44    1
    34    19    14    1
    35    19    45    1
    36    19    46    1
    37    20     3   ar
    38    20    47    1
    39    21    22    1
    40    22    23    1
    41    22    48    1
    42    22    49    1
    43    23    24    1
    44    23    50    1
    45    23    51    1
    46    24    25    1
    47    24    31    1
    48    25    26   ar
    49    26    27   ar
    50    26    52    1
    51    27    28   ar
    52    27    53    1
    53    28    29   ar
    54    28    54    1
    55    29    30   ar
    56    29    55    1
    57    30    25   ar
    58    31    32    1
    59    31    56    1
    60    31    57    1
    61    32    21    1
    62    32    58    1
    63    32    59    1
@<TRIPOS>MOLECULE
*****
 59 63 0 0 0
SMALL
GASTEIGER

@<TRIPOS>ATOM
      1 O          -1.2634    1.7451    0.5852 O.2     1  UNL11      -0.2700
      2 C          -1.1213    1.1791    1.7800 C.2     1  UNL11       0.2467
      3 C          -0.0128    0.2638    1.9168 C.ar    1  UNL11       0.0372
      4 C           0.5720    0.1646    3.1999 C.ar    1  UNL11      -0.0496
      5 C           1.6430   -0.6586    3.3810 C.ar    1  UNL11      -0.0608
      6 C           2.1775   -1.4009    2.3519 C.ar    1  UNL11      -0.0582
      7 C           1.6525   -1.3437    1.0881 C.ar    1  UNL11      -0.0407
      8 C           2.1622   -2.0994   -0.0926 C.3     1  UNL11       0.0208
      9 C           1.2006   -3.0061   -0.7020 C.2     1  UNL11       0.1150
     10 N           1.5606   -3.7650   -1.7855 N.2     1  UNL11      -0.0076
     11 N           0.7279   -4.6297   -2.3266 N.am    1  UNL11      -0.0358
     12 C          -0.5180   -4.8397   -1.8748 C.2     1  UNL11       0.4340
     13 O          -1.2977   -5.6738   -2.4085 O.2     1  UNL11      -0.2120
     14 C          -0.9427   -4.1193   -0.8014 C.2     1  UNL11       0.0740
     15 C          -0.0504   -3.1992   -0.2314 C.2     1  UNL11      -0.0072
     16 C          -0.6417   -2.4374    0.9049 C.3     1  UNL11      -0.0252
     17 C          -1.0898   -3.5024    1.8977 C.3     1  UNL11      -0.0487
     18 C          -2.2668   -4.2139    1.3083 C.3     1  UNL11      -0.0484
     19 C          -2.2893   -4.2427   -0.1834 C.3     1  UNL11      -0.0176
     20 C           0.5413   -0.4814    0.9243 C.ar    1  UNL11      -0.0461
     21 N          -2.0615    1.5508    2.7320 N.am    1  UNL11      -0.2945
     22 C          -3.0796    2.5225    2.2683 C.3     1  UNL11       0.0308
     23 C          -2.8274    3.7888    3.0825 C.3     1  UNL11       0.0294
     24 N          -2.9328    3.4209    4.5029 N.pl3   1  UNL11      -0.3122
     25 C          -2.9149    4.4575    5.4535 C.ar    1  UNL11       0.1213
     26 C          -2.4308    4.3698    6.7324 C.ar    1  UNL11      -0.0217
     27 C          -2.4376    5.4275    7.6354 C.ar    1  UNL11      -0.0571
     28 C          -2.9506    6.6429    7.2589 C.ar    1  UNL11      -0.0435
     29 C          -3.4446    6.7314    5.9524 C.ar    1  UNL11       0.0297
     30 N          -3.4152    5.6869    5.1246 N.ar    1  UNL11      -0.2403
     31 C          -3.0537    2.0475    4.8673 C.3     1  UNL11       0.0294
     32 C          -2.1120    1.1282    4.0686 C.3     1  UNL11       0.0308
     33 H           0.1633    0.7448    4.0433 H       1  UNL11       0.0625
     34 H           2.1183   -0.7600    4.3544 H       1  UNL11       0.0618
     35 H           3.0273   -2.0535    2.5602 H       1  UNL11       0.0620
     36 H           2.5606   -1.3290   -0.7876 H       1  UNL11       0.0379
     37 H           3.0763   -2.6806    0.2292 H       1  UNL11       0.0379
     38 H           1.0402   -5.1867   -3.1485 H       1  UNL11       0.4828
     39 H           0.0707   -1.7872    1.3801 H       1  UNL11       0.0314
     40 H          -1.5391   -1.8841    0.5079 H       1  UNL11       0.0314
     41 H          -0.2080   -4.1774    2.0196 H       1  UNL11       0.0268
     42 H          -1.3510   -2.9778    2.8266 H       1  UNL11       0.0268
     43 H          -2.2719   -5.2520    1.7511 H       1  UNL11       0.0269
     44 H          -3.1825   -3.6787    1.6802 H       1  UNL11       0.0269
     45 H          -2.9865   -3.4546   -0.5955 H       1  UNL11       0.0316
     46 H          -2.7535   -5.2155   -0.4976 H       1  UNL11       0.0316
     47 H           0.1806   -0.4443   -0.0735 H       1  UNL11       0.0628
     48 H          -2.9757    2.7123    1.2037 H       1  UNL11       0.0480
     49 H          -4.0653    2.1190    2.5728 H       1  UNL11       0.0480
     50 H          -3.6441    4.4841    2.8467 H       1  UNL11       0.0480
     51 H          -1.8249    4.1369    2.8718 H       1  UNL11       0.0480
     52 H          -2.0180    3.4082    7.0531 H       1  UNL11       0.0652
     53 H          -2.0501    5.3289    8.6361 H       1  UNL11       0.0619
     54 H          -2.9868    7.5077    7.9133 H       1  UNL11       0.0633
     55 H          -3.8431    7.7005    5.6822 H       1  UNL11       0.0830
     56 H          -2.8635    1.8207    5.9281 H       1  UNL11       0.0480
     57 H          -4.0851    1.7018    4.6484 H       1  UNL11       0.0480
     58 H          -1.1120    1.2367    4.5603 H       1  UNL11       0.0480
     59 H          -2.5482    0.0934    4.1974 H       1  UNL11       0.0480
@<TRIPOS>BOND
     1     1     2    2
     2     2     3    1
     3     2    21   am
     4     3     4   ar
     5     4     5   ar
     6     4    33    1
     7     5     6   ar
     8     5    34    1
     9     6     7   ar
    10     6    35    1
    11     7     8    1
    12     7    20   ar
    13     8     9    1
    14     8    36    1
    15     8    37    1
    16     9    10    2
    17    10    11    1
    18    11    12   am
    19    11    38    1
    20    12    13    2
    21    12    14    1
    22    14    15    2
    23    15    16    1
    24    15     9    1
    25    16    17    1
    26    16    39    1
    27    16    40    1
    28    17    18    1
    29    17    41    1
    30    17    42    1
    31    18    19    1
    32    18    43    1
    33    18    44    1
    34    19    14    1
    35    19    45    1
    36    19    46    1
    37    20     3   ar
    38    20    47    1
    39    21    22    1
    40    22    23    1
    41    22    48    1
    42    22    49    1
    43    23    24    1
    44    23    50    1
    45    23    51    1
    46    24    25    1
    47    24    31    1
    48    25    26   ar
    49    26    27   ar
    50    26    52    1
    51    27    28   ar
    52    27    53    1
    53    28    29   ar
    54    28    54    1
    55    29    30   ar
    56    29    55    1
    57    30    25   ar
    58    31    32    1
    59    31    56    1
    60    31    57    1
    61    32    21    1
    62    32    58    1
    63    32    59    1
@<TRIPOS>MOLECULE
*****
 59 63 0 0 0
SMALL
GASTEIGER

@<TRIPOS>ATOM
      1 O          -2.0323    0.8560    0.8669 O.2     1  UNL11      -0.2700
      2 C          -1.1213    1.1791    1.7800 C.2     1  UNL11       0.2467
      3 C          -0.0128    0.2638    1.9168 C.ar    1  UNL11       0.0372
      4 C           0.5720    0.1646    3.1999 C.ar    1  UNL11      -0.0496
      5 C           1.6430   -0.6586    3.3810 C.ar    1  UNL11      -0.0608
      6 C           2.1775   -1.4009    2.3519 C.ar    1  UNL11      -0.0582
      7 C           1.6525   -1.3437    1.0881 C.ar    1  UNL11      -0.0407
      8 C           2.1622   -2.0994   -0.0926 C.3     1  UNL11       0.0208
      9 C           3.5478   -1.8259   -0.4440 C.2     1  UNL11       0.1150
     10 N           4.5572   -2.5784    0.0985 N.2     1  UNL11      -0.0076
     11 N           5.8155   -2.3865   -0.2387 N.am    1  UNL11      -0.0358
     12 C           6.2114   -1.4587   -1.1236 C.2     1  UNL11       0.4340
     13 O           7.4222   -1.2933   -1.4317 O.2     1  UNL11      -0.2120
     14 C           5.2612   -0.6743   -1.7012 C.2     1  UNL11       0.0740
     15 C           3.9233   -0.8839   -1.3357 C.2     1  UNL11      -0.0072
     16 C           2.9810    0.0634   -1.9960 C.3     1  UNL11      -0.0252
     17 C           3.2124   -0.1327   -3.4889 C.3     1  UNL11      -0.0487
     18 C           4.5584    0.4289   -3.8229 C.3     1  UNL11      -0.0484
     19 C           5.5412    0.3901   -2.7009 C.3     1  UNL11      -0.0176
     20 C           0.5413   -0.4814    0.9243 C.ar    1  UNL11      -0.0461
     21 N          -1.3643    2.3567    2.4747 N.am    1  UNL11      -0.2945
     22 C          -2.6036    3.0724    2.0904 C.3     1  UNL11       0.0308
     23 C          -2.1340    4.3884    1.4759 C.3     1  UNL11       0.0294
     24 N          -1.3184    5.0752    2.4893 N.pl3   1  UNL11      -0.3122
     25 C          -0.9153    6.3964    2.2238 C.ar    1  UNL11       0.1213
     26 C          -0.1459    7.1837    3.0398 C.ar    1  UNL11      -0.0217
     27 C           0.2246    8.4878    2.7297 C.ar    1  UNL11      -0.0571
     28 C          -0.1856    9.0510    1.5480 C.ar    1  UNL11      -0.0435
     29 C          -0.9712    8.2460    0.7152 C.ar    1  UNL11       0.0297
     30 N          -1.2995    7.0005    1.0587 N.ar    1  UNL11      -0.2403
     31 C          -0.9711    4.3942    3.6932 C.3     1  UNL11       0.0294
     32 C          -0.5456    2.9338    3.4568 C.3     1  UNL11       0.0308
     33 H           0.1633    0.7448    4.0433 H       1  UNL11       0.0625
     34 H           2.1183   -0.7600    4.3544 H       1  UNL11       0.0618
     35 H           3.0273   -2.0535    2.5602 H       1  UNL11       0.0620
     36 H           1.9543   -3.1686    0.1281 H       1  UNL11       0.0379
     37 H           1.4965   -1.8647   -0.9750 H       1  UNL11       0.0379
     38 H           6.5521   -2.9794    0.1963 H       1  UNL11       0.4828
     39 H           1.9528   -0.1506   -1.7655 H       1  UNL11       0.0314
     40 H           3.2868    1.1054   -1.6961 H       1  UNL11       0.0314
     41 H           3.1659   -1.2374   -3.6488 H       1  UNL11       0.0268
     42 H           2.4049    0.4027   -4.0062 H       1  UNL11       0.0268
     43 H           4.9281   -0.1347   -4.7282 H       1  UNL11       0.0269
     44 H           4.3915    1.4972   -4.1296 H       1  UNL11       0.0269
     45 H           5.6205    1.3969   -2.1938 H       1  UNL11       0.0316
     46 H           6.5584    0.2225   -3.1456 H       1  UNL11       0.0316
     47 H           0.1806   -0.4443   -0.0735 H       1  UNL11       0.0628
     48 H          -3.1810    2.4897    1.3781 H       1  UNL11       0.0480
     49 H          -3.1359    3.3131    3.0316 H       1  UNL11       0.0480
     50 H          -3.0338    4.9910    1.2937 H       1  UNL11       0.0480
     51 H          -1.5239    4.1636    0.6112 H       1  UNL11       0.0480
     52 H           0.1909    6.7534    3.9881 H       1  UNL11       0.0652
     53 H           0.8306    9.0840    3.3920 H       1  UNL11       0.0619
     54 H           0.0671   10.0622    1.2456 H       1  UNL11       0.0633
     55 H          -1.2806    8.7151   -0.2095 H       1  UNL11       0.0830
     56 H          -0.1574    4.8514    4.2778 H       1  UNL11       0.0480
     57 H          -1.8580    4.3559    4.3590 H       1  UNL11       0.0480
     58 H           0.5167    2.9921    3.1080 H       1  UNL11       0.0480
     59 H          -0.6427    2.4419    4.4698 H       1  UNL11       0.0480
@<TRIPOS>BOND
     1     1     2    2
     2     2     3    1
     3     2    21   am
     4     3     4   ar
     5     4     5   ar
     6     4    33    1
     7     5     6   ar
     8     5    34    1
     9     6     7   ar
    10     6    35    1
    11     7     8    1
    12     7    20   ar
    13     8     9    1
    14     8    36    1
    15     8    37    1
    16     9    10    2
    17    10    11    1
    18    11    12   am
    19    11    38    1
    20    12    13    2
    21    12    14    1
    22    14    15    2
    23    15    16    1
    24    15     9    1
    25    16    17    1
    26    16    39    1
    27    16    40    1
    28    17    18    1
    29    17    41    1
    30    17    42    1
    31    18    19    1
    32    18    43    1
    33    18    44    1
    34    19    14    1
    35    19    45    1
    36    19    46    1
    37    20     3   ar
    38    20    47    1
    39    21    22    1
    40    22    23    1
    41    22    48    1
    42    22    49    1
    43    23    24    1
    44    23    50    1
    45    23    51    1
    46    24    25    1
    47    24    31    1
    48    25    26   ar
    49    26    27   ar
    50    26    52    1
    51    27    28   ar
    52    27    53    1
    53    28    29   ar
    54    28    54    1
    55    29    30   ar
    56    29    55    1
    57    30    25   ar
    58    31    32    1
    59    31    56    1
    60    31    57    1
    61    32    21    1
    62    32    58    1
    63    32    59    1
@<TRIPOS>MOLECULE
*****
 59 63 0 0 0
SMALL
GASTEIGER

@<TRIPOS>ATOM
      1 O          -1.2634    1.7451    0.5852 O.2     1  UNL11      -0.2700
      2 C          -1.1213    1.1791    1.7800 C.2     1  UNL11       0.2467
      3 C          -0.0128    0.2638    1.9168 C.ar    1  UNL11       0.0372
      4 C           0.5720    0.1646    3.1999 C.ar    1  UNL11      -0.0496
      5 C           1.6430   -0.6586    3.3810 C.ar    1  UNL11      -0.0608
      6 C           2.1775   -1.4009    2.3519 C.ar    1  UNL11      -0.0582
      7 C           1.6525   -1.3437    1.0881 C.ar    1  UNL11      -0.0407
      8 C           2.1622   -2.0994   -0.0926 C.3     1  UNL11       0.0208
      9 C           3.5478   -1.8259   -0.4440 C.2     1  UNL11       0.1150
     10 N           4.0955   -0.5972   -0.1801 N.2     1  UNL11      -0.0076
     11 N           5.3596   -0.3373   -0.4414 N.am    1  UNL11      -0.0358
     12 C           6.2040   -1.2324   -0.9766 C.2     1  UNL11       0.4340
     13 O           7.4110   -0.9613   -1.2176 O.2     1  UNL11      -0.2120
     14 C           5.7269   -2.4736   -1.2654 C.2     1  UNL11       0.0740
     15 C           4.3789   -2.7423   -0.9854 C.2     1  UNL11      -0.0072
     16 C           3.9602   -4.1151   -1.3869 C.3     1  UNL11      -0.0252
     17 C           4.9052   -5.0462   -0.6382 C.3     1  UNL11      -0.0487
     18 C           6.2650   -4.9073   -1.2468 C.3     1  UNL11      -0.0484
     19 C           6.5380   -3.5719   -1.8540 C.3     1  UNL11      -0.0176
     20 C           0.5413   -0.4814    0.9243 C.ar    1  UNL11      -0.0461
     21 N          -2.0615    1.5508    2.7320 N.am    1  UNL11      -0.2945
     22 C          -1.8887    0.9296    4.0663 C.3     1  UNL11       0.0308
     23 C          -3.1163    0.0433    4.2593 C.3     1  UNL11       0.0294
     24 N          -4.3005    0.9069    4.1337 N.pl3   1  UNL11      -0.3122
     25 C          -5.5545    0.3532    4.4491 C.ar    1  UNL11       0.1213
     26 C          -5.9106   -0.9633    4.3160 C.ar    1  UNL11      -0.0217
     27 C          -7.1678   -1.4605    4.6422 C.ar    1  UNL11      -0.0571
     28 C          -8.1316   -0.6135    5.1277 C.ar    1  UNL11      -0.0435
     29 C          -7.7668    0.7309    5.2634 C.ar    1  UNL11       0.0297
     30 N          -6.5470    1.1578    4.9361 N.ar    1  UNL11      -0.2403
     31 C          -4.1438    2.2589    3.7081 C.3     1  UNL11       0.0294
     32 C          -3.1528    2.4109    2.5400 C.3     1  UNL11       0.0308
     33 H           0.1633    0.7448    4.0433 H       1  UNL11       0.0625
     34 H           2.1183   -0.7600    4.3544 H       1  UNL11       0.0618
     35 H           3.0273   -2.0535    2.5602 H       1  UNL11       0.0620
     36 H           1.9543   -3.1686    0.1281 H       1  UNL11       0.0379
     37 H           1.4965   -1.8647   -0.9750 H       1  UNL11       0.0379
     38 H           5.7369    0.6086   -0.2258 H       1  UNL11       0.4828
     39 H           2.9467   -4.3360   -1.1038 H       1  UNL11       0.0314
     40 H           4.1325   -4.2081   -2.4963 H       1  UNL11       0.0314
     41 H           4.8810   -4.6956    0.4223 H       1  UNL11       0.0268
     42 H           4.5054   -6.0625   -0.7556 H       1  UNL11       0.0268
     43 H           7.0089   -5.1636   -0.4376 H       1  UNL11       0.0269
     44 H           6.3405   -5.6965   -2.0434 H       1  UNL11       0.0269
     45 H           6.4084   -3.6006   -2.9762 H       1  UNL11       0.0316
     46 H           7.6282   -3.3477   -1.7061 H       1  UNL11       0.0316
     47 H           0.1806   -0.4443   -0.0735 H       1  UNL11       0.0628
     48 H          -0.9728    0.3467    4.1052 H       1  UNL11       0.0480
     49 H          -1.9475    1.7500    4.8083 H       1  UNL11       0.0480
     50 H          -3.0748   -0.3340    5.2899 H       1  UNL11       0.0480
     51 H          -3.1267   -0.7022    3.4754 H       1  UNL11       0.0480
     52 H          -5.1563   -1.6556    3.9292 H       1  UNL11       0.0652
     53 H          -7.4198   -2.5018    4.5263 H       1  UNL11       0.0619
     54 H          -9.1314   -0.9355    5.4004 H       1  UNL11       0.0633
     55 H          -8.5457    1.3761    5.6480 H       1  UNL11       0.0830
     56 H          -5.0676    2.7631    3.3835 H       1  UNL11       0.0480
     57 H          -3.7318    2.8591    4.5456 H       1  UNL11       0.0480
     58 H          -3.7325    2.1234    1.6263 H       1  UNL11       0.0480
     59 H          -2.8703    3.5052    2.5474 H       1  UNL11       0.0480
@<TRIPOS>BOND
     1     1     2    2
     2     2     3    1
     3     2    21   am
     4     3     4   ar
     5     4     5   ar
     6     4    33    1
     7     5     6   ar
     8     5    34    1
     9     6     7   ar
    10     6    35    1
    11     7     8    1
    12     7    20   ar
    13     8     9    1
    14     8    36    1
    15     8    37    1
    16     9    10    2
    17    10    11    1
    18    11    12   am
    19    11    38    1
    20    12    13    2
    21    12    14    1
    22    14    15    2
    23    15    16    1
    24    15     9    1
    25    16    17    1
    26    16    39    1
    27    16    40    1
    28    17    18    1
    29    17    41    1
    30    17    42    1
    31    18    19    1
    32    18    43    1
    33    18    44    1
    34    19    14    1
    35    19    45    1
    36    19    46    1
    37    20     3   ar
    38    20    47    1
    39    21    22    1
    40    22    23    1
    41    22    48    1
    42    22    49    1
    43    23    24    1
    44    23    50    1
    45    23    51    1
    46    24    25    1
    47    24    31    1
    48    25    26   ar
    49    26    27   ar
    50    26    52    1
    51    27    28   ar
    52    27    53    1
    53    28    29   ar
    54    28    54    1
    55    29    30   ar
    56    29    55    1
    57    30    25   ar
    58    31    32    1
    59    31    56    1
    60    31    57    1
    61    32    21    1
    62    32    58    1
    63    32    59    1
@<TRIPOS>MOLECULE
*****
 59 63 0 0 0
SMALL
GASTEIGER

@<TRIPOS>ATOM
      1 O          -1.1098    2.2311    2.5931 O.2     1  UNL11      -0.2700
      2 C          -1.1213    1.1791    1.7800 C.2     1  UNL11       0.2467
      3 C          -0.0128    0.2638    1.9168 C.ar    1  UNL11       0.0372
      4 C           0.5720    0.1646    3.1999 C.ar    1  UNL11      -0.0496
      5 C           1.6430   -0.6586    3.3810 C.ar    1  UNL11      -0.0608
      6 C           2.1775   -1.4009    2.3519 C.ar    1  UNL11      -0.0582
      7 C           1.6525   -1.3437    1.0881 C.ar    1  UNL11      -0.0407
      8 C           2.1622   -2.0994   -0.0926 C.3     1  UNL11       0.0208
      9 C           2.7879   -3.3757    0.2199 C.2     1  UNL11       0.1150
     10 N           2.8740   -3.8003    1.5206 N.2     1  UNL11      -0.0076
     11 N           3.3897   -4.9720    1.8288 N.am    1  UNL11      -0.0358
     12 C           3.8652   -5.8342    0.9172 C.2     1  UNL11       0.4340
     13 O           4.3541   -6.9514    1.2357 O.2     1  UNL11      -0.2120
     14 C           3.8123   -5.4770   -0.3947 C.2     1  UNL11       0.0740
     15 C           3.2628   -4.2268   -0.7149 C.2     1  UNL11      -0.0072
     16 C           3.3016   -3.9269   -2.1742 C.3     1  UNL11      -0.0252
     17 C           2.5477   -5.0771   -2.8295 C.3     1  UNL11      -0.0487
     18 C           3.3899   -6.3077   -2.7065 C.3     1  UNL11      -0.0484
     19 C           4.2925   -6.3240   -1.5184 C.3     1  UNL11      -0.0176
     20 C           0.5413   -0.4814    0.9243 C.ar    1  UNL11      -0.0461
     21 N          -2.2027    1.1076    0.9118 N.am    1  UNL11      -0.2945
     22 C          -2.2189   -0.0752    0.0193 C.3     1  UNL11       0.0308
     23 C          -2.0556    0.4833   -1.3918 C.3     1  UNL11       0.0294
     24 N          -3.1561    1.4340   -1.6135 N.pl3   1  UNL11      -0.3122
     25 C          -3.3266    1.9514   -2.9104 C.ar    1  UNL11       0.1213
     26 C          -2.3359    2.1474   -3.8365 C.ar    1  UNL11      -0.0217
     27 C          -2.5584    2.6646   -5.1082 C.ar    1  UNL11      -0.0571
     28 C          -3.8296    3.0094   -5.4919 C.ar    1  UNL11      -0.0435
     29 C          -4.8407    2.8086   -4.5452 C.ar    1  UNL11       0.0297
     30 N          -4.5752    2.3093   -3.3380 N.ar    1  UNL11      -0.2403
     31 C          -4.0064    1.7925   -0.5263 C.3     1  UNL11       0.0294
     32 C          -3.2356    2.0478    0.7814 C.3     1  UNL11       0.0308
     33 H           0.1633    0.7448    4.0433 H       1  UNL11       0.0625
     34 H           2.1183   -0.7600    4.3544 H       1  UNL11       0.0618
     35 H           3.0273   -2.0535    2.5602 H       1  UNL11       0.0620
     36 H           1.2996   -2.1772   -0.7891 H       1  UNL11       0.0379
     37 H           2.9006   -1.4418   -0.6395 H       1  UNL11       0.0379
     38 H           3.4367   -5.2570    2.8288 H       1  UNL11       0.4828
     39 H           2.8145   -2.9996   -2.4174 H       1  UNL11       0.0314
     40 H           4.3819   -3.9479   -2.4931 H       1  UNL11       0.0314
     41 H           1.5917   -5.1627   -2.2578 H       1  UNL11       0.0268
     42 H           2.3880   -4.7927   -3.8783 H       1  UNL11       0.0268
     43 H           2.6813   -7.1860   -2.7110 H       1  UNL11       0.0269
     44 H           4.0109   -6.3643   -3.6416 H       1  UNL11       0.0269
     45 H           5.3478   -6.0389   -1.8047 H       1  UNL11       0.0316
     46 H           4.3771   -7.3881   -1.1705 H       1  UNL11       0.0316
     47 H           0.1806   -0.4443   -0.0735 H       1  UNL11       0.0628
     48 H          -1.4112   -0.7577    0.2680 H       1  UNL11       0.0480
     49 H          -3.2340   -0.5130    0.0911 H       1  UNL11       0.0480
     50 H          -2.1865   -0.3602   -2.0827 H       1  UNL11       0.0480
     51 H          -1.1095    1.0053   -1.4457 H       1  UNL11       0.0480
     52 H          -1.3142    1.8797   -3.5499 H       1  UNL11       0.0652
     53 H          -1.7587    2.8084   -5.8161 H       1  UNL11       0.0619
     54 H          -4.0720    3.4181   -6.4675 H       1  UNL11       0.0633
     55 H          -5.8328    3.0890   -4.8740 H       1  UNL11       0.0830
     56 H          -4.6276    2.6877   -0.6865 H       1  UNL11       0.0480
     57 H          -4.7039    0.9549   -0.3178 H       1  UNL11       0.0480
     58 H          -2.8228    3.0836    0.6793 H       1  UNL11       0.0480
     59 H          -4.0188    1.9715    1.5927 H       1  UNL11       0.0480
@<TRIPOS>BOND
     1     1     2    2
     2     2     3    1
     3     2    21   am
     4     3     4   ar
     5     4     5   ar
     6     4    33    1
     7     5     6   ar
     8     5    34    1
     9     6     7   ar
    10     6    35    1
    11     7     8    1
    12     7    20   ar
    13     8     9    1
    14     8    36    1
    15     8    37    1
    16     9    10    2
    17    10    11    1
    18    11    12   am
    19    11    38    1
    20    12    13    2
    21    12    14    1
    22    14    15    2
    23    15    16    1
    24    15     9    1
    25    16    17    1
    26    16    39    1
    27    16    40    1
    28    17    18    1
    29    17    41    1
    30    17    42    1
    31    18    19    1
    32    18    43    1
    33    18    44    1
    34    19    14    1
    35    19    45    1
    36    19    46    1
    37    20     3   ar
    38    20    47    1
    39    21    22    1
    40    22    23    1
    41    22    48    1
    42    22    49    1
    43    23    24    1
    44    23    50    1
    45    23    51    1
    46    24    25    1
    47    24    31    1
    48    25    26   ar
    49    26    27   ar
    50    26    52    1
    51    27    28   ar
    52    27    53    1
    53    28    29   ar
    54    28    54    1
    55    29    30   ar
    56    29    55    1
    57    30    25   ar
    58    31    32    1
    59    31    56    1
    60    31    57    1
    61    32    21    1
    62    32    58    1
    63    32    59    1
@<TRIPOS>MOLECULE
*****
 59 63 0 0 0
SMALL
GASTEIGER

@<TRIPOS>ATOM
      1 O          -1.1098    2.2311    2.5931 O.2     1  UNL11      -0.2700
      2 C          -1.1213    1.1791    1.7800 C.2     1  UNL11       0.2467
      3 C          -0.0128    0.2638    1.9168 C.ar    1  UNL11       0.0372
      4 C           0.5720    0.1646    3.1999 C.ar    1  UNL11      -0.0496
      5 C           1.6430   -0.6586    3.3810 C.ar    1  UNL11      -0.0608
      6 C           2.1775   -1.4009    2.3519 C.ar    1  UNL11      -0.0582
      7 C           1.6525   -1.3437    1.0881 C.ar    1  UNL11      -0.0407
      8 C           2.1622   -2.0994   -0.0926 C.3     1  UNL11       0.0208
      9 C           2.1253   -3.5479    0.0440 C.2     1  UNL11       0.1150
     10 N           1.0188   -4.2496   -0.3593 N.2     1  UNL11      -0.0076
     11 N           0.9765   -5.5641   -0.2939 N.am    1  UNL11      -0.0358
     12 C           1.9903   -6.3154    0.1627 C.2     1  UNL11       0.4340
     13 O           1.9276   -7.5730    0.2156 O.2     1  UNL11      -0.2120
     14 C           3.1207   -5.6840    0.5813 C.2     1  UNL11       0.0740
     15 C           3.1575   -4.2836    0.5097 C.2     1  UNL11      -0.0072
     16 C           4.4246   -3.7037    1.0383 C.3     1  UNL11      -0.0252
     17 C           5.5266   -4.3561    0.2133 C.3     1  UNL11      -0.0487
     18 C           5.6106   -5.7950    0.6149 C.3     1  UNL11      -0.0484
     19 C           4.3272   -6.3766    1.1060 C.3     1  UNL11      -0.0176
     20 C           0.5413   -0.4814    0.9243 C.ar    1  UNL11      -0.0461
     21 N          -2.2027    1.1076    0.9118 N.am    1  UNL11      -0.2945
     22 C          -3.1786    2.2170    1.0259 C.3     1  UNL11       0.0308
     23 C          -4.4679    1.5689    1.5235 C.3     1  UNL11       0.0294
     24 N          -4.8344    0.5273    0.5516 N.pl3   1  UNL11      -0.3122
     25 C          -6.0873   -0.0955    0.6967 C.ar    1  UNL11       0.1213
     26 C          -7.0145    0.1758    1.6684 C.ar    1  UNL11      -0.0217
     27 C          -8.2413   -0.4715    1.7682 C.ar    1  UNL11      -0.0571
     28 C          -8.5762   -1.4429    0.8592 C.ar    1  UNL11      -0.0435
     29 C          -7.6285   -1.7191   -0.1330 C.ar    1  UNL11       0.0297
     30 N          -6.4655   -1.0697   -0.1852 N.ar    1  UNL11      -0.2403
     31 C          -3.9261    0.1895   -0.4945 C.3     1  UNL11       0.0294
     32 C          -2.4669    0.0881   -0.0147 C.3     1  UNL11       0.0308
     33 H           0.1633    0.7448    4.0433 H       1  UNL11       0.0625
     34 H           2.1183   -0.7600    4.3544 H       1  UNL11       0.0618
     35 H           3.0273   -2.0535    2.5602 H       1  UNL11       0.0620
     36 H           1.5881   -1.7124   -0.9620 H       1  UNL11       0.0379
     37 H           3.2235   -1.7668   -0.2921 H       1  UNL11       0.0379
     38 H           0.1174   -6.0592   -0.6103 H       1  UNL11       0.4828
     39 H           4.4728   -2.6368    0.9137 H       1  UNL11       0.0314
     40 H           4.5157   -4.0209    2.1155 H       1  UNL11       0.0314
     41 H           5.2064   -4.2340   -0.8500 H       1  UNL11       0.0268
     42 H           6.4538   -3.8126    0.4396 H       1  UNL11       0.0268
     43 H           6.0150   -6.3563   -0.2769 H       1  UNL11       0.0269
     44 H           6.3787   -5.8538    1.4333 H       1  UNL11       0.0269
     45 H           4.3020   -6.4123    2.2352 H       1  UNL11       0.0316
     46 H           4.3010   -7.4547    0.7936 H       1  UNL11       0.0316
     47 H           0.1806   -0.4443   -0.0735 H       1  UNL11       0.0628
     48 H          -2.8245    2.9728    1.7214 H       1  UNL11       0.0480
     49 H          -3.3633    2.5842   -0.0028 H       1  UNL11       0.0480
     50 H          -5.2422    2.3474    1.5005 H       1  UNL11       0.0480
     51 H          -4.2730    1.1143    2.4857 H       1  UNL11       0.0480
     52 H          -6.7663    0.9470    2.4044 H       1  UNL11       0.0652
     53 H          -8.9512   -0.2373    2.5444 H       1  UNL11       0.0619
     54 H          -9.5153   -1.9863    0.8802 H       1  UNL11       0.0633
     55 H          -7.9184   -2.4890   -0.8361 H       1  UNL11       0.0830
     56 H          -4.1356   -0.7577   -1.0158 H       1  UNL11       0.0480
     57 H          -3.9452    0.9875   -1.2654 H       1  UNL11       0.0480
     58 H          -2.3874   -0.9198    0.4665 H       1  UNL11       0.0480
     59 H          -1.8510    0.1672   -0.9590 H       1  UNL11       0.0480
@<TRIPOS>BOND
     1     1     2    2
     2     2     3    1
     3     2    21   am
     4     3     4   ar
     5     4     5   ar
     6     4    33    1
     7     5     6   ar
     8     5    34    1
     9     6     7   ar
    10     6    35    1
    11     7     8    1
    12     7    20   ar
    13     8     9    1
    14     8    36    1
    15     8    37    1
    16     9    10    2
    17    10    11    1
    18    11    12   am
    19    11    38    1
    20    12    13    2
    21    12    14    1
    22    14    15    2
    23    15    16    1
    24    15     9    1
    25    16    17    1
    26    16    39    1
    27    16    40    1
    28    17    18    1
    29    17    41    1
    30    17    42    1
    31    18    19    1
    32    18    43    1
    33    18    44    1
    34    19    14    1
    35    19    45    1
    36    19    46    1
    37    20     3   ar
    38    20    47    1
    39    21    22    1
    40    22    23    1
    41    22    48    1
    42    22    49    1
    43    23    24    1
    44    23    50    1
    45    23    51    1
    46    24    25    1
    47    24    31    1
    48    25    26   ar
    49    26    27   ar
    50    26    52    1
    51    27    28   ar
    52    27    53    1
    53    28    29   ar
    54    28    54    1
    55    29    30   ar
    56    29    55    1
    57    30    25   ar
    58    31    32    1
    59    31    56    1
    60    31    57    1
    61    32    21    1
    62    32    58    1
    63    32    59    1
@<TRIPOS>MOLECULE
*****
 59 63 0 0 0
SMALL
GASTEIGER

@<TRIPOS>ATOM
      1 O          -1.8625    1.3608    2.8688 O.2     1  UNL11      -0.2700
      2 C          -1.1213    1.1791    1.7800 C.2     1  UNL11       0.2467
      3 C          -0.0128    0.2638    1.9168 C.ar    1  UNL11       0.0372
      4 C           0.5720    0.1646    3.1999 C.ar    1  UNL11      -0.0496
      5 C           1.6430   -0.6586    3.3810 C.ar    1  UNL11      -0.0608
      6 C           2.1775   -1.4009    2.3519 C.ar    1  UNL11      -0.0582
      7 C           1.6525   -1.3437    1.0881 C.ar    1  UNL11      -0.0407
      8 C           2.1622   -2.0994   -0.0926 C.3     1  UNL11       0.0208
      9 C           1.1516   -2.4485   -1.0800 C.2     1  UNL11       0.1150
     10 N           0.9138   -3.7634   -1.3866 N.2     1  UNL11      -0.0076
     11 N          -0.0278   -4.1114   -2.2387 N.am    1  UNL11      -0.0358
     12 C          -0.8199   -3.2294   -2.8673 C.2     1  UNL11       0.4340
     13 O          -1.7158   -3.5858   -3.6789 O.2     1  UNL11      -0.2120
     14 C          -0.6385   -1.9054   -2.6107 C.2     1  UNL11       0.0740
     15 C           0.3674   -1.5427   -1.7029 C.2     1  UNL11      -0.0072
     16 C           0.5033   -0.0676   -1.5387 C.3     1  UNL11      -0.0252
     17 C          -0.8757    0.4046   -1.0959 C.3     1  UNL11      -0.0487
     18 C          -1.8036    0.2703   -2.2620 C.3     1  UNL11      -0.0484
     19 C          -1.4382   -0.8115   -3.2226 C.3     1  UNL11      -0.0176
     20 C           0.5413   -0.4814    0.9243 C.ar    1  UNL11      -0.0461
     21 N          -1.5203    1.8965    0.6600 N.am    1  UNL11      -0.2945
     22 C          -2.7126    2.7553    0.8518 C.3     1  UNL11       0.0308
     23 C          -3.7891    2.1559   -0.0492 C.3     1  UNL11       0.0294
     24 N          -3.2541    2.1467   -1.4194 N.pl3   1  UNL11      -0.3122
     25 C          -4.1300    1.8024   -2.4648 C.ar    1  UNL11       0.1213
     26 C          -3.7821    1.1835   -3.6368 C.ar    1  UNL11      -0.0217
     27 C          -4.6895    0.8653   -4.6415 C.ar    1  UNL11      -0.0571
     28 C          -6.0170    1.1740   -4.4849 C.ar    1  UNL11      -0.0435
     29 C          -6.3712    1.8060   -3.2874 C.ar    1  UNL11       0.0297
     30 N          -5.4623    2.0898   -2.3545 N.ar    1  UNL11      -0.2403
     31 C          -1.8875    2.4867   -1.6438 C.3     1  UNL11       0.0294
     32 C          -0.9336    1.8555   -0.6136 C.3     1  UNL11       0.0308
     33 H           0.1633    0.7448    4.0433 H       1  UNL11       0.0625
     34 H           2.1183   -0.7600    4.3544 H       1  UNL11       0.0618
     35 H           3.0273   -2.0535    2.5602 H       1  UNL11       0.0620
     36 H           2.9975   -1.4880   -0.4972 H       1  UNL11       0.0379
     37 H           2.6642   -3.0401    0.2814 H       1  UNL11       0.0379
     38 H          -0.1764   -5.1209   -2.4443 H       1  UNL11       0.4828
     39 H           1.2267    0.1985   -0.7890 H       1  UNL11       0.0314
     40 H           0.7470    0.3623   -2.5511 H       1  UNL11       0.0314
     41 H          -1.1589   -0.2713   -0.2527 H       1  UNL11       0.0268
     42 H          -0.7643    1.4503   -0.7791 H       1  UNL11       0.0268
     43 H          -2.8388    0.1253   -1.8362 H       1  UNL11       0.0269
     44 H          -1.7891    1.2585   -2.7972 H       1  UNL11       0.0269
     45 H          -0.9055   -0.3910   -4.1261 H       1  UNL11       0.0316
     46 H          -2.3921   -1.2360   -3.6354 H       1  UNL11       0.0316
     47 H           0.1806   -0.4443   -0.0735 H       1  UNL11       0.0628
     48 H          -3.0255    2.7549    1.8921 H       1  UNL11       0.0480
     49 H          -2.4536    3.7531    0.4463 H       1  UNL11       0.0480
     50 H          -4.6448    2.8436   -0.0197 H       1  UNL11       0.0480
     51 H          -3.9783    1.1405    0.2728 H       1  UNL11       0.0480
     52 H          -2.7274    0.9296   -3.7821 H       1  UNL11       0.0652
     53 H          -4.3865    0.3785   -5.5540 H       1  UNL11       0.0619
     54 H          -6.7760    0.9545   -5.2288 H       1  UNL11       0.0633
     55 H          -7.4238    2.0379   -3.1905 H       1  UNL11       0.0830
     56 H          -1.4866    2.2090   -2.6313 H       1  UNL11       0.0480
     57 H          -1.7650    3.5854   -1.5488 H       1  UNL11       0.0480
     58 H          -0.7931    0.7985   -0.9552 H       1  UNL11       0.0480
     59 H           0.0143    2.4660   -0.6924 H       1  UNL11       0.0480
@<TRIPOS>BOND
     1     1     2    2
     2     2     3    1
     3     2    21   am
     4     3     4   ar
     5     4     5   ar
     6     4    33    1
     7     5     6   ar
     8     5    34    1
     9     6     7   ar
    10     6    35    1
    11     7     8    1
    12     7    20   ar
    13     8     9    1
    14     8    36    1
    15     8    37    1
    16     9    10    2
    17    10    11    1
    18    11    12   am
    19    11    38    1
    20    12    13    2
    21    12    14    1
    22    14    15    2
    23    15    16    1
    24    15     9    1
    25    16    17    1
    26    16    39    1
    27    16    40    1
    28    17    18    1
    29    17    41    1
    30    17    42    1
    31    18    19    1
    32    18    43    1
    33    18    44    1
    34    19    14    1
    35    19    45    1
    36    19    46    1
    37    20     3   ar
    38    20    47    1
    39    21    22    1
    40    22    23    1
    41    22    48    1
    42    22    49    1
    43    23    24    1
    44    23    50    1
    45    23    51    1
    46    24    25    1
    47    24    31    1
    48    25    26   ar
    49    26    27   ar
    50    26    52    1
    51    27    28   ar
    52    27    53    1
    53    28    29   ar
    54    28    54    1
    55    29    30   ar
    56    29    55    1
    57    30    25   ar
    58    31    32    1
    59    31    56    1
    60    31    57    1
    61    32    21    1
    62    32    58    1
    63    32    59    1
@<TRIPOS>MOLECULE
*****
 59 63 0 0 0
SMALL
GASTEIGER

@<TRIPOS>ATOM
      1 O          -2.0323    0.8560    0.8669 O.2     1  UNL11      -0.2700
      2 C          -1.1213    1.1791    1.7800 C.2     1  UNL11       0.2467
      3 C          -0.0128    0.2638    1.9168 C.ar    1  UNL11       0.0372
      4 C           0.5720    0.1646    3.1999 C.ar    1  UNL11      -0.0496
      5 C           1.6430   -0.6586    3.3810 C.ar    1  UNL11      -0.0608
      6 C           2.1775   -1.4009    2.3519 C.ar    1  UNL11      -0.0582
      7 C           1.6525   -1.3437    1.0881 C.ar    1  UNL11      -0.0407
      8 C           2.1622   -2.0994   -0.0926 C.3     1  UNL11       0.0208
      9 C           1.2006   -3.0061   -0.7020 C.2     1  UNL11       0.1150
     10 N           1.4690   -4.3487   -0.7724 N.2     1  UNL11      -0.0076
     11 N           0.5970   -5.1989   -1.2729 N.am    1  UNL11      -0.0358
     12 C          -0.6042   -4.8342   -1.7470 C.2     1  UNL11       0.4340
     13 O          -1.4235   -5.6662   -2.2212 O.2     1  UNL11      -0.2120
     14 C          -0.9369   -3.5153   -1.7091 C.2     1  UNL11       0.0740
     15 C          -0.0022   -2.6156   -1.1757 C.2     1  UNL11      -0.0072
     16 C          -0.4577   -1.1976   -1.2303 C.3     1  UNL11      -0.0252
     17 C          -1.7775   -1.1819   -0.4698 C.3     1  UNL11      -0.0487
     18 C          -2.7935   -1.9038   -1.2978 C.3     1  UNL11      -0.0484
     19 C          -2.2289   -2.9583   -2.1899 C.3     1  UNL11      -0.0176
     20 C           0.5413   -0.4814    0.9243 C.ar    1  UNL11      -0.0461
     21 N          -1.3643    2.3567    2.4747 N.am    1  UNL11      -0.2945
     22 C          -0.3376    2.7204    3.4795 C.3     1  UNL11       0.0308
     23 C          -1.0468    2.6347    4.8285 C.3     1  UNL11       0.0294
     24 N          -2.2000    3.5463    4.7723 N.pl3   1  UNL11      -0.3122
     25 C          -2.9130    3.7784    5.9624 C.ar    1  UNL11       0.1213
     26 C          -2.6358    3.2312    7.1877 C.ar    1  UNL11      -0.0217
     27 C          -3.3750    3.4936    8.3362 C.ar    1  UNL11      -0.0571
     28 C          -4.4500    4.3437    8.2764 C.ar    1  UNL11      -0.0435
     29 C          -4.7321    4.9021    7.0245 C.ar    1  UNL11       0.0297
     30 N          -3.9921    4.6182    5.9526 N.ar    1  UNL11      -0.2403
     31 C          -2.5515    4.1615    3.5348 C.3     1  UNL11       0.0294
     32 C          -2.4826    3.1927    2.3405 C.3     1  UNL11       0.0308
     33 H           0.1633    0.7448    4.0433 H       1  UNL11       0.0625
     34 H           2.1183   -0.7600    4.3544 H       1  UNL11       0.0618
     35 H           3.0273   -2.0535    2.5602 H       1  UNL11       0.0620
     36 H           2.5606   -1.3290   -0.7876 H       1  UNL11       0.0379
     37 H           3.0763   -2.6806    0.2292 H       1  UNL11       0.0379
     38 H           0.8394   -6.2105   -1.3083 H       1  UNL11       0.4828
     39 H           0.2332   -0.5245   -0.7552 H       1  UNL11       0.0314
     40 H          -0.6380   -0.9439   -2.3130 H       1  UNL11       0.0314
     41 H          -1.5666   -1.7098    0.4920 H       1  UNL11       0.0268
     42 H          -2.0440   -0.1267   -0.3221 H       1  UNL11       0.0268
     43 H          -3.5572   -2.3222   -0.5798 H       1  UNL11       0.0269
     44 H          -3.3051   -1.1249   -1.9261 H       1  UNL11       0.0269
     45 H          -2.1264   -2.5823   -3.2506 H       1  UNL11       0.0316
     46 H          -2.9856   -3.7848   -2.2602 H       1  UNL11       0.0316
     47 H           0.1806   -0.4443   -0.0735 H       1  UNL11       0.0628
     48 H           0.5058    2.0372    3.4346 H       1  UNL11       0.0480
     49 H          -0.0824    3.7837    3.3019 H       1  UNL11       0.0480
     50 H          -0.3435    3.0172    5.5802 H       1  UNL11       0.0480
     51 H          -1.3938    1.6197    4.9686 H       1  UNL11       0.0480
     52 H          -1.7826    2.5492    7.2568 H       1  UNL11       0.0652
     53 H          -3.1335    3.0477    9.2871 H       1  UNL11       0.0619
     54 H          -5.0684    4.5904    9.1334 H       1  UNL11       0.0633
     55 H          -5.5847    5.5683    7.0061 H       1  UNL11       0.0830
     56 H          -3.5566    4.6102    3.4978 H       1  UNL11       0.0480
     57 H          -1.8313    4.9769    3.3157 H       1  UNL11       0.0480
     58 H          -3.4321    2.6013    2.3894 H       1  UNL11       0.0480
     59 H          -2.4365    3.8639    1.4322 H       1  UNL11       0.0480
@<TRIPOS>BOND
     1     1     2    2
     2     2     3    1
     3     2    21   am
     4     3     4   ar
     5     4     5   ar
     6     4    33    1
     7     5     6   ar
     8     5    34    1
     9     6     7   ar
    10     6    35    1
    11     7     8    1
    12     7    20   ar
    13     8     9    1
    14     8    36    1
    15     8    37    1
    16     9    10    2
    17    10    11    1
    18    11    12   am
    19    11    38    1
    20    12    13    2
    21    12    14    1
    22    14    15    2
    23    15    16    1
    24    15     9    1
    25    16    17    1
    26    16    39    1
    27    16    40    1
    28    17    18    1
    29    17    41    1
    30    17    42    1
    31    18    19    1
    32    18    43    1
    33    18    44    1
    34    19    14    1
    35    19    45    1
    36    19    46    1
    37    20     3   ar
    38    20    47    1
    39    21    22    1
    40    22    23    1
    41    22    48    1
    42    22    49    1
    43    23    24    1
    44    23    50    1
    45    23    51    1
    46    24    25    1
    47    24    31    1
    48    25    26   ar
    49    26    27   ar
    50    26    52    1
    51    27    28   ar
    52    27    53    1
    53    28    29   ar
    54    28    54    1
    55    29    30   ar
    56    29    55    1
    57    30    25   ar
    58    31    32    1
    59    31    56    1
    60    31    57    1
    61    32    21    1
    62    32    58    1
    63    32    59    1
@<TRIPOS>MOLECULE
*****
 59 63 0 0 0
SMALL
GASTEIGER

@<TRIPOS>ATOM
      1 O          -1.1098    2.2311    2.5931 O.2     1  UNL11      -0.2700
      2 C          -1.1213    1.1791    1.7800 C.2     1  UNL11       0.2467
      3 C          -0.0128    0.2638    1.9168 C.ar    1  UNL11       0.0372
      4 C           0.5720    0.1646    3.1999 C.ar    1  UNL11      -0.0496
      5 C           1.6430   -0.6586    3.3810 C.ar    1  UNL11      -0.0608
      6 C           2.1775   -1.4009    2.3519 C.ar    1  UNL11      -0.0582
      7 C           1.6525   -1.3437    1.0881 C.ar    1  UNL11      -0.0407
      8 C           2.1622   -2.0994   -0.0926 C.3     1  UNL11       0.0208
      9 C           2.6031   -1.2725   -1.2061 C.2     1  UNL11       0.1150
     10 N           2.0270   -0.0477   -1.4247 N.2     1  UNL11      -0.0076
     11 N           2.4392    0.7430   -2.3935 N.am    1  UNL11      -0.0358
     12 C           3.4371    0.4268   -3.2330 C.2     1  UNL11       0.4340
     13 O           3.8154    1.2003   -4.1533 O.2     1  UNL11      -0.2120
     14 C           4.0542   -0.7756   -3.0743 C.2     1  UNL11       0.0740
     15 C           3.6085   -1.6129   -2.0409 C.2     1  UNL11      -0.0072
     16 C           4.3258   -2.9184   -1.9950 C.3     1  UNL11      -0.0252
     17 C           5.7971   -2.5508   -1.8503 C.3     1  UNL11      -0.0487
     18 C           6.2504   -1.9521   -3.1445 C.3     1  UNL11      -0.0484
     19 C           5.1759   -1.2647   -3.9187 C.3     1  UNL11      -0.0176
     20 C           0.5413   -0.4814    0.9243 C.ar    1  UNL11      -0.0461
     21 N          -2.2027    1.1076    0.9118 N.am    1  UNL11      -0.2945
     22 C          -2.2189   -0.0752    0.0193 C.3     1  UNL11       0.0308
     23 C          -2.0556    0.4833   -1.3918 C.3     1  UNL11       0.0294
     24 N          -3.1561    1.4340   -1.6135 N.pl3   1  UNL11      -0.3122
     25 C          -3.3266    1.9514   -2.9104 C.ar    1  UNL11       0.1213
     26 C          -3.8300    3.1862   -3.2256 C.ar    1  UNL11      -0.0217
     27 C          -3.9792    3.6502   -4.5281 C.ar    1  UNL11      -0.0571
     28 C          -3.6122    2.8533   -5.5827 C.ar    1  UNL11      -0.0435
     29 C          -3.0980    1.5923   -5.2596 C.ar    1  UNL11       0.0297
     30 N          -2.9750    1.1941   -3.9933 N.ar    1  UNL11      -0.2403
     31 C          -4.0064    1.7925   -0.5263 C.3     1  UNL11       0.0294
     32 C          -3.2356    2.0478    0.7814 C.3     1  UNL11       0.0308
     33 H           0.1633    0.7448    4.0433 H       1  UNL11       0.0625
     34 H           2.1183   -0.7600    4.3544 H       1  UNL11       0.0618
     35 H           3.0273   -2.0535    2.5602 H       1  UNL11       0.0620
     36 H           2.9477   -2.7769    0.3063 H       1  UNL11       0.0379
     37 H           1.3460   -2.7982   -0.4424 H       1  UNL11       0.0379
     38 H           1.9751    1.6652   -2.5260 H       1  UNL11       0.4828
     39 H           4.0275   -3.5232   -1.1575 H       1  UNL11       0.0314
     40 H           4.1558   -3.4303   -2.9841 H       1  UNL11       0.0314
     41 H           5.8328   -1.8146   -1.0108 H       1  UNL11       0.0268
     42 H           6.3333   -3.4809   -1.6188 H       1  UNL11       0.0268
     43 H           7.1041   -1.2565   -2.8973 H       1  UNL11       0.0269
     44 H           6.6645   -2.7969   -3.7594 H       1  UNL11       0.0269
     45 H           4.7863   -1.9248   -4.7490 H       1  UNL11       0.0316
     46 H           5.6447   -0.3951   -4.4522 H       1  UNL11       0.0316
     47 H           0.1806   -0.4443   -0.0735 H       1  UNL11       0.0628
     48 H          -1.4112   -0.7577    0.2680 H       1  UNL11       0.0480
     49 H          -3.2340   -0.5130    0.0911 H       1  UNL11       0.0480
     50 H          -2.1865   -0.3602   -2.0827 H       1  UNL11       0.0480
     51 H          -1.1095    1.0053   -1.4457 H       1  UNL11       0.0480
     52 H          -4.1299    3.8373   -2.3986 H       1  UNL11       0.0652
     53 H          -4.3791    4.6270   -4.7460 H       1  UNL11       0.0619
     54 H          -3.7028    3.1533   -6.6217 H       1  UNL11       0.0633
     55 H          -2.8169    0.9850   -6.1100 H       1  UNL11       0.0830
     56 H          -4.6276    2.6877   -0.6865 H       1  UNL11       0.0480
     57 H          -4.7039    0.9549   -0.3178 H       1  UNL11       0.0480
     58 H          -2.8228    3.0836    0.6793 H       1  UNL11       0.0480
     59 H          -4.0188    1.9715    1.5927 H       1  UNL11       0.0480
@<TRIPOS>BOND
     1     1     2    2
     2     2     3    1
     3     2    21   am
     4     3     4   ar
     5     4     5   ar
     6     4    33    1
     7     5     6   ar
     8     5    34    1
     9     6     7   ar
    10     6    35    1
    11     7     8    1
    12     7    20   ar
    13     8     9    1
    14     8    36    1
    15     8    37    1
    16     9    10    2
    17    10    11    1
    18    11    12   am
    19    11    38    1
    20    12    13    2
    21    12    14    1
    22    14    15    2
    23    15    16    1
    24    15     9    1
    25    16    17    1
    26    16    39    1
    27    16    40    1
    28    17    18    1
    29    17    41    1
    30    17    42    1
    31    18    19    1
    32    18    43    1
    33    18    44    1
    34    19    14    1
    35    19    45    1
    36    19    46    1
    37    20     3   ar
    38    20    47    1
    39    21    22    1
    40    22    23    1
    41    22    48    1
    42    22    49    1
    43    23    24    1
    44    23    50    1
    45    23    51    1
    46    24    25    1
    47    24    31    1
    48    25    26   ar
    49    26    27   ar
    50    26    52    1
    51    27    28   ar
    52    27    53    1
    53    28    29   ar
    54    28    54    1
    55    29    30   ar
    56    29    55    1
    57    30    25   ar
    58    31    32    1
    59    31    56    1
    60    31    57    1
    61    32    21    1
    62    32    58    1
    63    32    59    1
@<TRIPOS>MOLECULE
*****
 59 63 0 0 0
SMALL
GASTEIGER

@<TRIPOS>ATOM
      1 O          -1.8625    1.3608    2.8688 O.2     1  UNL11      -0.2700
      2 C          -1.1213    1.1791    1.7800 C.2     1  UNL11       0.2467
      3 C          -0.0128    0.2638    1.9168 C.ar    1  UNL11       0.0372
      4 C           0.5720    0.1646    3.1999 C.ar    1  UNL11      -0.0496
      5 C           1.6430   -0.6586    3.3810 C.ar    1  UNL11      -0.0608
      6 C           2.1775   -1.4009    2.3519 C.ar    1  UNL11      -0.0582
      7 C           1.6525   -1.3437    1.0881 C.ar    1  UNL11      -0.0407
      8 C           2.1622   -2.0994   -0.0926 C.3     1  UNL11       0.0208
      9 C           1.1516   -2.4485   -1.0800 C.2     1  UNL11       0.1150
     10 N           1.4904   -2.5550   -2.4041 N.2     1  UNL11      -0.0076
     11 N           0.6088   -2.9175   -3.3125 N.am    1  UNL11      -0.0358
     12 C          -0.6699   -3.2085   -3.0283 C.2     1  UNL11       0.4340
     13 O          -1.4964   -3.5542   -3.9148 O.2     1  UNL11      -0.2120
     14 C          -1.0761   -3.1227   -1.7324 C.2     1  UNL11       0.0740
     15 C          -0.1315   -2.7345   -0.7708 C.2     1  UNL11      -0.0072
     16 C          -0.7026   -2.6304    0.6018 C.3     1  UNL11      -0.0252
     17 C          -1.2883   -4.0075    0.8866 C.3     1  UNL11      -0.0487
     18 C          -2.4966   -4.1808    0.0212 C.3     1  UNL11      -0.0484
     19 C          -2.4547   -3.4179   -1.2604 C.3     1  UNL11      -0.0176
     20 C           0.5413   -0.4814    0.9243 C.ar    1  UNL11      -0.0461
     21 N          -1.5203    1.8965    0.6600 N.am    1  UNL11      -0.2945
     22 C          -2.7126    2.7553    0.8518 C.3     1  UNL11       0.0308
     23 C          -3.7891    2.1559   -0.0492 C.3     1  UNL11       0.0294
     24 N          -3.2541    2.1467   -1.4194 N.pl3   1  UNL11      -0.3122
     25 C          -4.1300    1.8024   -2.4648 C.ar    1  UNL11       0.1213
     26 C          -5.2066    0.9601   -2.3698 C.ar    1  UNL11      -0.0217
     27 C          -6.0427    0.6513   -3.4374 C.ar    1  UNL11      -0.0571
     28 C          -5.8062    1.2029   -4.6710 C.ar    1  UNL11      -0.0435
     29 C          -4.7064    2.0632   -4.7669 C.ar    1  UNL11       0.0297
     30 N          -3.9348    2.3271   -3.7124 N.ar    1  UNL11      -0.2403
     31 C          -1.8875    2.4867   -1.6438 C.3     1  UNL11       0.0294
     32 C          -0.9336    1.8555   -0.6136 C.3     1  UNL11       0.0308
     33 H           0.1633    0.7448    4.0433 H       1  UNL11       0.0625
     34 H           2.1183   -0.7600    4.3544 H       1  UNL11       0.0618
     35 H           3.0273   -2.0535    2.5602 H       1  UNL11       0.0620
     36 H           2.9975   -1.4880   -0.4972 H       1  UNL11       0.0379
     37 H           2.6642   -3.0401    0.2814 H       1  UNL11       0.0379
     38 H           0.9065   -2.9864   -4.3075 H       1  UNL11       0.4828
     39 H           0.0432   -2.4024    1.3421 H       1  UNL11       0.0314
     40 H          -1.5282   -1.8647    0.5652 H       1  UNL11       0.0314
     41 H          -0.4767   -4.7296    0.6255 H       1  UNL11       0.0268
     42 H          -1.5429   -4.0273    1.9548 H       1  UNL11       0.0268
     43 H          -2.6144   -5.2900   -0.1510 H       1  UNL11       0.0269
     44 H          -3.3764   -3.8334    0.6281 H       1  UNL11       0.0269
     45 H          -3.0594   -2.4660   -1.1877 H       1  UNL11       0.0316
     46 H          -2.9895   -4.0278   -2.0367 H       1  UNL11       0.0316
     47 H           0.1806   -0.4443   -0.0735 H       1  UNL11       0.0628
     48 H          -3.0255    2.7549    1.8921 H       1  UNL11       0.0480
     49 H          -2.4536    3.7531    0.4463 H       1  UNL11       0.0480
     50 H          -4.6448    2.8436   -0.0197 H       1  UNL11       0.0480
     51 H          -3.9783    1.1405    0.2728 H       1  UNL11       0.0480
     52 H          -5.4120    0.5085   -1.3942 H       1  UNL11       0.0652
     53 H          -6.8826   -0.0158   -3.3329 H       1  UNL11       0.0619
     54 H          -6.4183    1.0038   -5.5447 H       1  UNL11       0.0633
     55 H          -4.5433    2.4836   -5.7506 H       1  UNL11       0.0830
     56 H          -1.4866    2.2090   -2.6313 H       1  UNL11       0.0480
     57 H          -1.7650    3.5854   -1.5488 H       1  UNL11       0.0480
     58 H          -0.7931    0.7985   -0.9552 H       1  UNL11       0.0480
     59 H           0.0143    2.4660   -0.6924 H       1  UNL11       0.0480
@<TRIPOS>BOND
     1     1     2    2
     2     2     3    1
     3     2    21   am
     4     3     4   ar
     5     4     5   ar
     6     4    33    1
     7     5     6   ar
     8     5    34    1
     9     6     7   ar
    10     6    35    1
    11     7     8    1
    12     7    20   ar
    13     8     9    1
    14     8    36    1
    15     8    37    1
    16     9    10    2
    17    10    11    1
    18    11    12   am
    19    11    38    1
    20    12    13    2
    21    12    14    1
    22    14    15    2
    23    15    16    1
    24    15     9    1
    25    16    17    1
    26    16    39    1
    27    16    40    1
    28    17    18    1
    29    17    41    1
    30    17    42    1
    31    18    19    1
    32    18    43    1
    33    18    44    1
    34    19    14    1
    35    19    45    1
    36    19    46    1
    37    20     3   ar
    38    20    47    1
    39    21    22    1
    40    22    23    1
    41    22    48    1
    42    22    49    1
    43    23    24    1
    44    23    50    1
    45    23    51    1
    46    24    25    1
    47    24    31    1
    48    25    26   ar
    49    26    27   ar
    50    26    52    1
    51    27    28   ar
    52    27    53    1
    53    28    29   ar
    54    28    54    1
    55    29    30   ar
    56    29    55    1
    57    30    25   ar
    58    31    32    1
    59    31    56    1
    60    31    57    1
    61    32    21    1
    62    32    58    1
    63    32    59    1
@<TRIPOS>MOLECULE
*****
 59 63 0 0 0
SMALL
GASTEIGER

@<TRIPOS>ATOM
      1 O          -1.8625    1.3608    2.8688 O.2     1  UNL11      -0.2700
      2 C          -1.1213    1.1791    1.7800 C.2     1  UNL11       0.2467
      3 C          -0.0128    0.2638    1.9168 C.ar    1  UNL11       0.0372
      4 C           0.5720    0.1646    3.1999 C.ar    1  UNL11      -0.0496
      5 C           1.6430   -0.6586    3.3810 C.ar    1  UNL11      -0.0608
      6 C           2.1775   -1.4009    2.3519 C.ar    1  UNL11      -0.0582
      7 C           1.6525   -1.3437    1.0881 C.ar    1  UNL11      -0.0407
      8 C           2.1622   -2.0994   -0.0926 C.3     1  UNL11       0.0208
      9 C           3.1756   -1.4058   -0.8736 C.2     1  UNL11       0.1150
     10 N           4.1385   -2.1185   -1.5404 N.2     1  UNL11      -0.0076
     11 N           5.0376   -1.5212   -2.2944 N.am    1  UNL11      -0.0358
     12 C           5.0891   -0.1922   -2.4728 C.2     1  UNL11       0.4340
     13 O           5.9589    0.3578   -3.2002 O.2     1  UNL11      -0.2120
     14 C           4.1632    0.5779   -1.8392 C.2     1  UNL11       0.0740
     15 C           3.2096   -0.0657   -1.0367 C.2     1  UNL11      -0.0072
     16 C           2.2803    0.8816   -0.3584 C.3     1  UNL11      -0.0252
     17 C           1.6437    1.6806   -1.4884 C.3     1  UNL11      -0.0487
     18 C           2.6932    2.5781   -2.0644 C.3     1  UNL11      -0.0484
     19 C           4.0868    2.0592   -1.9421 C.3     1  UNL11      -0.0176
     20 C           0.5413   -0.4814    0.9243 C.ar    1  UNL11      -0.0461
     21 N          -1.5203    1.8965    0.6600 N.am    1  UNL11      -0.2945
     22 C          -2.7126    2.7553    0.8518 C.3     1  UNL11       0.0308
     23 C          -3.7891    2.1559   -0.0492 C.3     1  UNL11       0.0294
     24 N          -3.2541    2.1467   -1.4194 N.pl3   1  UNL11      -0.3122
     25 C          -4.1300    1.8024   -2.4648 C.ar    1  UNL11       0.1213
     26 C          -5.4835    2.0147   -2.4850 C.ar    1  UNL11      -0.0217
     27 C          -6.3066    1.6532   -3.5462 C.ar    1  UNL11      -0.0571
     28 C          -5.7672    1.0473   -4.6525 C.ar    1  UNL11      -0.0435
     29 C          -4.3846    0.8312   -4.6309 C.ar    1  UNL11       0.0297
     30 N          -3.6389    1.1966   -3.5881 N.ar    1  UNL11      -0.2403
     31 C          -1.8875    2.4867   -1.6438 C.3     1  UNL11       0.0294
     32 C          -0.9336    1.8555   -0.6136 C.3     1  UNL11       0.0308
     33 H           0.1633    0.7448    4.0433 H       1  UNL11       0.0625
     34 H           2.1183   -0.7600    4.3544 H       1  UNL11       0.0618
     35 H           3.0273   -2.0535    2.5602 H       1  UNL11       0.0620
     36 H           2.4929   -3.0829    0.3057 H       1  UNL11       0.0379
     37 H           1.2827   -2.3514   -0.7558 H       1  UNL11       0.0379
     38 H           5.7518   -2.0987   -2.7840 H       1  UNL11       0.4828
     39 H           1.5100    0.3768    0.1965 H       1  UNL11       0.0314
     40 H           2.9055    1.5627    0.2854 H       1  UNL11       0.0314
     41 H           1.2931    0.9168   -2.2244 H       1  UNL11       0.0268
     42 H           0.8159    2.2500   -1.0447 H       1  UNL11       0.0268
     43 H           2.4045    2.7644   -3.1395 H       1  UNL11       0.0269
     44 H           2.6144    3.5553   -1.5147 H       1  UNL11       0.0269
     45 H           4.6272    2.5434   -1.0758 H       1  UNL11       0.0316
     46 H           4.6563    2.3976   -2.8486 H       1  UNL11       0.0316
     47 H           0.1806   -0.4443   -0.0735 H       1  UNL11       0.0628
     48 H          -3.0255    2.7549    1.8921 H       1  UNL11       0.0480
     49 H          -2.4536    3.7531    0.4463 H       1  UNL11       0.0480
     50 H          -4.6448    2.8436   -0.0197 H       1  UNL11       0.0480
     51 H          -3.9783    1.1405    0.2728 H       1  UNL11       0.0480
     52 H          -5.9340    2.4959   -1.6113 H       1  UNL11       0.0652
     53 H          -7.3692    1.8324   -3.5338 H       1  UNL11       0.0619
     54 H          -6.3520    0.7398   -5.5134 H       1  UNL11       0.0633
     55 H          -3.9860    0.3519   -5.5155 H       1  UNL11       0.0830
     56 H          -1.4866    2.2090   -2.6313 H       1  UNL11       0.0480
     57 H          -1.7650    3.5854   -1.5488 H       1  UNL11       0.0480
     58 H          -0.7931    0.7985   -0.9552 H       1  UNL11       0.0480
     59 H           0.0143    2.4660   -0.6924 H       1  UNL11       0.0480
@<TRIPOS>BOND
     1     1     2    2
     2     2     3    1
     3     2    21   am
     4     3     4   ar
     5     4     5   ar
     6     4    33    1
     7     5     6   ar
     8     5    34    1
     9     6     7   ar
    10     6    35    1
    11     7     8    1
    12     7    20   ar
    13     8     9    1
    14     8    36    1
    15     8    37    1
    16     9    10    2
    17    10    11    1
    18    11    12   am
    19    11    38    1
    20    12    13    2
    21    12    14    1
    22    14    15    2
    23    15    16    1
    24    15     9    1
    25    16    17    1
    26    16    39    1
    27    16    40    1
    28    17    18    1
    29    17    41    1
    30    17    42    1
    31    18    19    1
    32    18    43    1
    33    18    44    1
    34    19    14    1
    35    19    45    1
    36    19    46    1
    37    20     3   ar
    38    20    47    1
    39    21    22    1
    40    22    23    1
    41    22    48    1
    42    22    49    1
    43    23    24    1
    44    23    50    1
    45    23    51    1
    46    24    25    1
    47    24    31    1
    48    25    26   ar
    49    26    27   ar
    50    26    52    1
    51    27    28   ar
    52    27    53    1
    53    28    29   ar
    54    28    54    1
    55    29    30   ar
    56    29    55    1
    57    30    25   ar
    58    31    32    1
    59    31    56    1
    60    31    57    1
    61    32    21    1
    62    32    58    1
    63    32    59    1
@<TRIPOS>MOLECULE
*****
 59 63 0 0 0
SMALL
GASTEIGER

@<TRIPOS>ATOM
      1 O          -2.0323    0.8560    0.8669 O.2     1  UNL11      -0.2700
      2 C          -1.1213    1.1791    1.7800 C.2     1  UNL11       0.2467
      3 C          -0.0128    0.2638    1.9168 C.ar    1  UNL11       0.0372
      4 C           0.5720    0.1646    3.1999 C.ar    1  UNL11      -0.0496
      5 C           1.6430   -0.6586    3.3810 C.ar    1  UNL11      -0.0608
      6 C           2.1775   -1.4009    2.3519 C.ar    1  UNL11      -0.0582
      7 C           1.6525   -1.3437    1.0881 C.ar    1  UNL11      -0.0407
      8 C           2.1622   -2.0994   -0.0926 C.3     1  UNL11       0.0208
      9 C           2.1253   -3.5479    0.0440 C.2     1  UNL11       0.1150
     10 N           3.2026   -4.2182    0.5633 N.2     1  UNL11      -0.0076
     11 N           3.1790   -5.5222    0.7447 N.am    1  UNL11      -0.0358
     12 C           2.1218   -6.2921    0.4443 C.2     1  UNL11       0.4340
     13 O           2.1215   -7.5391    0.6273 O.2     1  UNL11      -0.2120
     14 C           1.0169   -5.6925   -0.0764 C.2     1  UNL11       0.0740
     15 C           1.0504   -4.3034   -0.2679 C.2     1  UNL11      -0.0072
     16 C          -0.1954   -3.7677   -0.8862 C.3     1  UNL11      -0.0252
     17 C          -1.3140   -4.1969    0.0545 C.3     1  UNL11      -0.0487
     18 C          -1.4756   -5.6792   -0.0700 C.3     1  UNL11      -0.0484
     19 C          -0.2310   -6.4076   -0.4532 C.3     1  UNL11      -0.0176
     20 C           0.5413   -0.4814    0.9243 C.ar    1  UNL11      -0.0461
     21 N          -1.3643    2.3567    2.4747 N.am    1  UNL11      -0.2945
     22 C          -2.6036    3.0724    2.0904 C.3     1  UNL11       0.0308
     23 C          -2.1340    4.3884    1.4759 C.3     1  UNL11       0.0294
     24 N          -1.3184    5.0752    2.4893 N.pl3   1  UNL11      -0.3122
     25 C          -0.9153    6.3964    2.2238 C.ar    1  UNL11       0.1213
     26 C          -1.2115    7.1183    1.0974 C.ar    1  UNL11      -0.0217
     27 C          -0.7862    8.4250    0.8831 C.ar    1  UNL11      -0.0571
     28 C          -0.0247    9.0590    1.8319 C.ar    1  UNL11      -0.0435
     29 C           0.2771    8.3208    2.9820 C.ar    1  UNL11       0.0297
     30 N          -0.1552    7.0696    3.1396 N.ar    1  UNL11      -0.2403
     31 C          -0.9711    4.3942    3.6932 C.3     1  UNL11       0.0294
     32 C          -0.5456    2.9338    3.4568 C.3     1  UNL11       0.0308
     33 H           0.1633    0.7448    4.0433 H       1  UNL11       0.0625
     34 H           2.1183   -0.7600    4.3544 H       1  UNL11       0.0618
     35 H           3.0273   -2.0535    2.5602 H       1  UNL11       0.0620
     36 H           1.5881   -1.7124   -0.9620 H       1  UNL11       0.0379
     37 H           3.2235   -1.7668   -0.2921 H       1  UNL11       0.0379
     38 H           4.0179   -5.9932    1.1417 H       1  UNL11       0.4828
     39 H          -0.1889   -2.6952   -0.9631 H       1  UNL11       0.0314
     40 H          -0.3204   -4.2750   -1.8843 H       1  UNL11       0.0314
     41 H          -0.9701   -3.8953    1.0738 H       1  UNL11       0.0268
     42 H          -2.2170   -3.6581   -0.2626 H       1  UNL11       0.0268
     43 H          -1.8919   -6.0427    0.9140 H       1  UNL11       0.0269
     44 H          -2.2595   -5.8500   -0.8572 H       1  UNL11       0.0269
     45 H          -0.2268   -6.6546   -1.5560 H       1  UNL11       0.0316
     46 H          -0.2526   -7.4084    0.0553 H       1  UNL11       0.0316
     47 H           0.1806   -0.4443   -0.0735 H       1  UNL11       0.0628
     48 H          -3.1810    2.4897    1.3781 H       1  UNL11       0.0480
     49 H          -3.1359    3.3131    3.0316 H       1  UNL11       0.0480
     50 H          -3.0338    4.9910    1.2937 H       1  UNL11       0.0480
     51 H          -1.5239    4.1636    0.6112 H       1  UNL11       0.0480
     52 H          -1.8172    6.6303    0.3275 H       1  UNL11       0.0652
     53 H          -1.0343    8.9684   -0.0138 H       1  UNL11       0.0619
     54 H           0.3399   10.0758    1.7275 H       1  UNL11       0.0633
     55 H           0.8786    8.8448    3.7131 H       1  UNL11       0.0830
     56 H          -0.1574    4.8514    4.2778 H       1  UNL11       0.0480
     57 H          -1.8580    4.3559    4.3590 H       1  UNL11       0.0480
     58 H           0.5167    2.9921    3.1080 H       1  UNL11       0.0480
     59 H          -0.6427    2.4419    4.4698 H       1  UNL11       0.0480
@<TRIPOS>BOND
     1     1     2    2
     2     2     3    1
     3     2    21   am
     4     3     4   ar
     5     4     5   ar
     6     4    33    1
     7     5     6   ar
     8     5    34    1
     9     6     7   ar
    10     6    35    1
    11     7     8    1
    12     7    20   ar
    13     8     9    1
    14     8    36    1
    15     8    37    1
    16     9    10    2
    17    10    11    1
    18    11    12   am
    19    11    38    1
    20    12    13    2
    21    12    14    1
    22    14    15    2
    23    15    16    1
    24    15     9    1
    25    16    17    1
    26    16    39    1
    27    16    40    1
    28    17    18    1
    29    17    41    1
    30    17    42    1
    31    18    19    1
    32    18    43    1
    33    18    44    1
    34    19    14    1
    35    19    45    1
    36    19    46    1
    37    20     3   ar
    38    20    47    1
    39    21    22    1
    40    22    23    1
    41    22    48    1
    42    22    49    1
    43    23    24    1
    44    23    50    1
    45    23    51    1
    46    24    25    1
    47    24    31    1
    48    25    26   ar
    49    26    27   ar
    50    26    52    1
    51    27    28   ar
    52    27    53    1
    53    28    29   ar
    54    28    54    1
    55    29    30   ar
    56    29    55    1
    57    30    25   ar
    58    31    32    1
    59    31    56    1
    60    31    57    1
    61    32    21    1
    62    32    58    1
    63    32    59    1
@<TRIPOS>MOLECULE
*****
 59 63 0 0 0
SMALL
GASTEIGER

@<TRIPOS>ATOM
      1 O          -1.1098    2.2311    2.5931 O.2     1  UNL11      -0.2700
      2 C          -1.1213    1.1791    1.7800 C.2     1  UNL11       0.2467
      3 C          -0.0128    0.2638    1.9168 C.ar    1  UNL11       0.0372
      4 C           0.5720    0.1646    3.1999 C.ar    1  UNL11      -0.0496
      5 C           1.6430   -0.6586    3.3810 C.ar    1  UNL11      -0.0608
      6 C           2.1775   -1.4009    2.3519 C.ar    1  UNL11      -0.0582
      7 C           1.6525   -1.3437    1.0881 C.ar    1  UNL11      -0.0407
      8 C           2.1622   -2.0994   -0.0926 C.3     1  UNL11       0.0208
      9 C           3.5478   -1.8259   -0.4440 C.2     1  UNL11       0.1150
     10 N           4.3155   -2.8006   -1.0274 N.2     1  UNL11      -0.0076
     11 N           5.5562   -2.5668   -1.4013 N.am    1  UNL11      -0.0358
     12 C           6.1644   -1.3806   -1.2479 C.2     1  UNL11       0.4340
     13 O           7.3534   -1.1796   -1.6142 O.2     1  UNL11      -0.2120
     14 C           5.4610   -0.3668   -0.6743 C.2     1  UNL11       0.0740
     15 C           4.1404   -0.6240   -0.2775 C.2     1  UNL11      -0.0072
     16 C           3.4885    0.5444    0.3791 C.3     1  UNL11      -0.0252
     17 C           3.5781    1.6682   -0.6454 C.3     1  UNL11      -0.0487
     18 C           5.0119    2.0839   -0.7471 C.3     1  UNL11      -0.0484
     19 C           5.9933    1.0020   -0.4424 C.3     1  UNL11      -0.0176
     20 C           0.5413   -0.4814    0.9243 C.ar    1  UNL11      -0.0461
     21 N          -2.2027    1.1076    0.9118 N.am    1  UNL11      -0.2945
     22 C          -3.1786    2.2170    1.0259 C.3     1  UNL11       0.0308
     23 C          -4.4679    1.5689    1.5235 C.3     1  UNL11       0.0294
     24 N          -4.8344    0.5273    0.5516 N.pl3   1  UNL11      -0.3122
     25 C          -6.0873   -0.0955    0.6967 C.ar    1  UNL11       0.1213
     26 C          -6.7604   -0.2872    1.8748 C.ar    1  UNL11      -0.0217
     27 C          -7.9998   -0.9117    1.9637 C.ar    1  UNL11      -0.0571
     28 C          -8.6135   -1.3752    0.8276 C.ar    1  UNL11      -0.0435
     29 C          -7.9252   -1.1787   -0.3750 C.ar    1  UNL11       0.0297
     30 N          -6.7378   -0.5736   -0.4070 N.ar    1  UNL11      -0.2403
     31 C          -3.9261    0.1895   -0.4945 C.3     1  UNL11       0.0294
     32 C          -2.4669    0.0881   -0.0147 C.3     1  UNL11       0.0308
     33 H           0.1633    0.7448    4.0433 H       1  UNL11       0.0625
     34 H           2.1183   -0.7600    4.3544 H       1  UNL11       0.0618
     35 H           3.0273   -2.0535    2.5602 H       1  UNL11       0.0620
     36 H           1.9543   -3.1686    0.1281 H       1  UNL11       0.0379
     37 H           1.4965   -1.8647   -0.9750 H       1  UNL11       0.0379
     38 H           6.1054   -3.3340   -1.8407 H       1  UNL11       0.4828
     39 H           2.4556    0.3611    0.6148 H       1  UNL11       0.0314
     40 H           4.1025    0.8056    1.2868 H       1  UNL11       0.0314
     41 H           3.1999    1.2251   -1.5986 H       1  UNL11       0.0268
     42 H           2.9404    2.4828   -0.2766 H       1  UNL11       0.0268
     43 H           5.1540    2.5031   -1.7853 H       1  UNL11       0.0269
     44 H           5.1529    2.9258   -0.0160 H       1  UNL11       0.0269
     45 H           6.3910    1.0977    0.6110 H       1  UNL11       0.0316
     46 H           6.8926    1.1653   -1.0945 H       1  UNL11       0.0316
     47 H           0.1806   -0.4443   -0.0735 H       1  UNL11       0.0628
     48 H          -2.8245    2.9728    1.7214 H       1  UNL11       0.0480
     49 H          -3.3633    2.5842   -0.0028 H       1  UNL11       0.0480
     50 H          -5.2422    2.3474    1.5005 H       1  UNL11       0.0480
     51 H          -4.2730    1.1143    2.4857 H       1  UNL11       0.0480
     52 H          -6.2874    0.0743    2.7932 H       1  UNL11       0.0652
     53 H          -8.5058   -1.0492    2.9052 H       1  UNL11       0.0619
     54 H          -9.5786   -1.8714    0.8267 H       1  UNL11       0.0633
     55 H          -8.4318   -1.5538   -1.2546 H       1  UNL11       0.0830
     56 H          -4.1356   -0.7577   -1.0158 H       1  UNL11       0.0480
     57 H          -3.9452    0.9875   -1.2654 H       1  UNL11       0.0480
     58 H          -2.3874   -0.9198    0.4665 H       1  UNL11       0.0480
     59 H          -1.8510    0.1672   -0.9590 H       1  UNL11       0.0480
@<TRIPOS>BOND
     1     1     2    2
     2     2     3    1
     3     2    21   am
     4     3     4   ar
     5     4     5   ar
     6     4    33    1
     7     5     6   ar
     8     5    34    1
     9     6     7   ar
    10     6    35    1
    11     7     8    1
    12     7    20   ar
    13     8     9    1
    14     8    36    1
    15     8    37    1
    16     9    10    2
    17    10    11    1
    18    11    12   am
    19    11    38    1
    20    12    13    2
    21    12    14    1
    22    14    15    2
    23    15    16    1
    24    15     9    1
    25    16    17    1
    26    16    39    1
    27    16    40    1
    28    17    18    1
    29    17    41    1
    30    17    42    1
    31    18    19    1
    32    18    43    1
    33    18    44    1
    34    19    14    1
    35    19    45    1
    36    19    46    1
    37    20     3   ar
    38    20    47    1
    39    21    22    1
    40    22    23    1
    41    22    48    1
    42    22    49    1
    43    23    24    1
    44    23    50    1
    45    23    51    1
    46    24    25    1
    47    24    31    1
    48    25    26   ar
    49    26    27   ar
    50    26    52    1
    51    27    28   ar
    52    27    53    1
    53    28    29   ar
    54    28    54    1
    55    29    30   ar
    56    29    55    1
    57    30    25   ar
    58    31    32    1
    59    31    56    1
    60    31    57    1
    61    32    21    1
    62    32    58    1
    63    32    59    1
@<TRIPOS>MOLECULE
*****
 59 63 0 0 0
SMALL
GASTEIGER

@<TRIPOS>ATOM
      1 O          -1.1098    2.2311    2.5931 O.2     1  UNL11      -0.2700
      2 C          -1.1213    1.1791    1.7800 C.2     1  UNL11       0.2467
      3 C          -0.0128    0.2638    1.9168 C.ar    1  UNL11       0.0372
      4 C           0.5720    0.1646    3.1999 C.ar    1  UNL11      -0.0496
      5 C           1.6430   -0.6586    3.3810 C.ar    1  UNL11      -0.0608
      6 C           2.1775   -1.4009    2.3519 C.ar    1  UNL11      -0.0582
      7 C           1.6525   -1.3437    1.0881 C.ar    1  UNL11      -0.0407
      8 C           2.1622   -2.0994   -0.0926 C.3     1  UNL11       0.0208
      9 C           3.5890   -2.3855   -0.0681 C.2     1  UNL11       0.1150
     10 N           4.0489   -3.5461    0.4984 N.2     1  UNL11      -0.0076
     11 N           5.3289   -3.8548    0.4910 N.am    1  UNL11      -0.0358
     12 C           6.2744   -3.0781   -0.0598 C.2     1  UNL11       0.4340
     13 O           7.4944   -3.3944   -0.0557 O.2     1  UNL11      -0.2120
     14 C           5.8887   -1.9092   -0.6399 C.2     1  UNL11       0.0740
     15 C           4.5236   -1.5868   -0.6267 C.2     1  UNL11      -0.0072
     16 C           4.2286   -0.2644   -1.2477 C.3     1  UNL11      -0.0252
     17 C           4.7878   -0.3633   -2.6612 C.3     1  UNL11      -0.0487
     18 C           6.2809   -0.3750   -2.5648 C.3     1  UNL11      -0.0484
     19 C           6.8148   -0.9479   -1.2947 C.3     1  UNL11      -0.0176
     20 C           0.5413   -0.4814    0.9243 C.ar    1  UNL11      -0.0461
     21 N          -2.2027    1.1076    0.9118 N.am    1  UNL11      -0.2945
     22 C          -2.2189   -0.0752    0.0193 C.3     1  UNL11       0.0308
     23 C          -2.0556    0.4833   -1.3918 C.3     1  UNL11       0.0294
     24 N          -3.1561    1.4340   -1.6135 N.pl3   1  UNL11      -0.3122
     25 C          -3.3266    1.9514   -2.9104 C.ar    1  UNL11       0.1213
     26 C          -3.0061    1.3147   -4.0806 C.ar    1  UNL11      -0.0217
     27 C          -3.1944    1.8727   -5.3405 C.ar    1  UNL11      -0.0571
     28 C          -3.7291    3.1307   -5.4567 C.ar    1  UNL11      -0.0435
     29 C          -4.0563    3.7800   -4.2607 C.ar    1  UNL11       0.0297
     30 N          -3.8559    3.2012   -3.0767 N.ar    1  UNL11      -0.2403
     31 C          -4.0064    1.7925   -0.5263 C.3     1  UNL11       0.0294
     32 C          -3.2356    2.0478    0.7814 C.3     1  UNL11       0.0308
     33 H           0.1633    0.7448    4.0433 H       1  UNL11       0.0625
     34 H           2.1183   -0.7600    4.3544 H       1  UNL11       0.0618
     35 H           3.0273   -2.0535    2.5602 H       1  UNL11       0.0620
     36 H           1.5207   -3.0042   -0.1643 H       1  UNL11       0.0379
     37 H           1.9124   -1.5090   -1.0231 H       1  UNL11       0.0379
     38 H           5.6373   -4.7458    0.9320 H       1  UNL11       0.4828
     39 H           3.1744   -0.0585   -1.2971 H       1  UNL11       0.0314
     40 H           4.7976    0.5146   -0.6658 H       1  UNL11       0.0314
     41 H           4.3849   -1.3226   -3.0680 H       1  UNL11       0.0268
     42 H           4.4192    0.5148   -3.2084 H       1  UNL11       0.0268
     43 H           6.6589   -0.9313   -3.4711 H       1  UNL11       0.0269
     44 H           6.6151    0.6943   -2.6557 H       1  UNL11       0.0269
     45 H           7.1113   -0.1309   -0.5723 H       1  UNL11       0.0316
     46 H           7.7798   -1.4687   -1.5360 H       1  UNL11       0.0316
     47 H           0.1806   -0.4443   -0.0735 H       1  UNL11       0.0628
     48 H          -1.4112   -0.7577    0.2680 H       1  UNL11       0.0480
     49 H          -3.2340   -0.5130    0.0911 H       1  UNL11       0.0480
     50 H          -2.1865   -0.3602   -2.0827 H       1  UNL11       0.0480
     51 H          -1.1095    1.0053   -1.4457 H       1  UNL11       0.0480
     52 H          -2.5770    0.3103   -4.0100 H       1  UNL11       0.0652
     53 H          -2.9320    1.3480   -6.2445 H       1  UNL11       0.0619
     54 H          -3.9015    3.6241   -6.4077 H       1  UNL11       0.0633
     55 H          -4.4758    4.7702   -4.3817 H       1  UNL11       0.0830
     56 H          -4.6276    2.6877   -0.6865 H       1  UNL11       0.0480
     57 H          -4.7039    0.9549   -0.3178 H       1  UNL11       0.0480
     58 H          -2.8228    3.0836    0.6793 H       1  UNL11       0.0480
     59 H          -4.0188    1.9715    1.5927 H       1  UNL11       0.0480
@<TRIPOS>BOND
     1     1     2    2
     2     2     3    1
     3     2    21   am
     4     3     4   ar
     5     4     5   ar
     6     4    33    1
     7     5     6   ar
     8     5    34    1
     9     6     7   ar
    10     6    35    1
    11     7     8    1
    12     7    20   ar
    13     8     9    1
    14     8    36    1
    15     8    37    1
    16     9    10    2
    17    10    11    1
    18    11    12   am
    19    11    38    1
    20    12    13    2
    21    12    14    1
    22    14    15    2
    23    15    16    1
    24    15     9    1
    25    16    17    1
    26    16    39    1
    27    16    40    1
    28    17    18    1
    29    17    41    1
    30    17    42    1
    31    18    19    1
    32    18    43    1
    33    18    44    1
    34    19    14    1
    35    19    45    1
    36    19    46    1
    37    20     3   ar
    38    20    47    1
    39    21    22    1
    40    22    23    1
    41    22    48    1
    42    22    49    1
    43    23    24    1
    44    23    50    1
    45    23    51    1
    46    24    25    1
    47    24    31    1
    48    25    26   ar
    49    26    27   ar
    50    26    52    1
    51    27    28   ar
    52    27    53    1
    53    28    29   ar
    54    28    54    1
    55    29    30   ar
    56    29    55    1
    57    30    25   ar
    58    31    32    1
    59    31    56    1
    60    31    57    1
    61    32    21    1
    62    32    58    1
    63    32    59    1
@<TRIPOS>MOLECULE
*****
 59 63 0 0 0
SMALL
GASTEIGER

@<TRIPOS>ATOM
      1 O          -2.0323    0.8560    0.8669 O.2     1  UNL11      -0.2700
      2 C          -1.1213    1.1791    1.7800 C.2     1  UNL11       0.2467
      3 C          -0.0128    0.2638    1.9168 C.ar    1  UNL11       0.0372
      4 C           0.5720    0.1646    3.1999 C.ar    1  UNL11      -0.0496
      5 C           1.6430   -0.6586    3.3810 C.ar    1  UNL11      -0.0608
      6 C           2.1775   -1.4009    2.3519 C.ar    1  UNL11      -0.0582
      7 C           1.6525   -1.3437    1.0881 C.ar    1  UNL11      -0.0407
      8 C           2.1622   -2.0994   -0.0926 C.3     1  UNL11       0.0208
      9 C           1.5562   -3.4076   -0.2915 C.2     1  UNL11       0.1150
     10 N           1.9557   -4.1999   -1.3366 N.2     1  UNL11      -0.0076
     11 N           1.4611   -5.4075   -1.5123 N.am    1  UNL11      -0.0358
     12 C           0.5434   -5.9566   -0.7017 C.2     1  UNL11       0.4340
     13 O           0.0845   -7.1153   -0.8892 O.2     1  UNL11      -0.2120
     14 C           0.1004   -5.2251    0.3567 C.2     1  UNL11       0.0740
     15 C           0.6311   -3.9391    0.5363 C.2     1  UNL11      -0.0072
     16 C           0.0372   -3.2179    1.6975 C.3     1  UNL11      -0.0252
     17 C           0.2956   -4.1246    2.8941 C.3     1  UNL11      -0.0487
     18 C          -0.5774   -5.3316    2.7530 C.3     1  UNL11      -0.0484
     19 C          -0.9064   -5.6963    1.3440 C.3     1  UNL11      -0.0176
     20 C           0.5413   -0.4814    0.9243 C.ar    1  UNL11      -0.0461
     21 N          -1.3643    2.3567    2.4747 N.am    1  UNL11      -0.2945
     22 C          -2.6036    3.0724    2.0904 C.3     1  UNL11       0.0308
     23 C          -2.1340    4.3884    1.4759 C.3     1  UNL11       0.0294
     24 N          -1.3184    5.0752    2.4893 N.pl3   1  UNL11      -0.3122
     25 C          -0.9153    6.3964    2.2238 C.ar    1  UNL11       0.1213
     26 C          -1.5984    7.3102    1.4649 C.ar    1  UNL11      -0.0217
     27 C          -1.1542    8.6074    1.2319 C.ar    1  UNL11      -0.0571
     28 C           0.0314    9.0308    1.7769 C.ar    1  UNL11      -0.0435
     29 C           0.7282    8.0967    2.5519 C.ar    1  UNL11       0.0297
     30 N           0.2591    6.8639    2.7452 N.ar    1  UNL11      -0.2403
     31 C          -0.9711    4.3942    3.6932 C.3     1  UNL11       0.0294
     32 C          -0.5456    2.9338    3.4568 C.3     1  UNL11       0.0308
     33 H           0.1633    0.7448    4.0433 H       1  UNL11       0.0625
     34 H           2.1183   -0.7600    4.3544 H       1  UNL11       0.0618
     35 H           3.0273   -2.0535    2.5602 H       1  UNL11       0.0620
     36 H           2.0458   -1.4110   -0.9573 H       1  UNL11       0.0379
     37 H           3.2806   -2.2155    0.0197 H       1  UNL11       0.0379
     38 H           1.7911   -5.9771   -2.3185 H       1  UNL11       0.4828
     39 H           0.5002   -2.2629    1.8699 H       1  UNL11       0.0314
     40 H          -1.0711   -3.1374    1.5121 H       1  UNL11       0.0314
     41 H           1.3813   -4.3816    2.8364 H       1  UNL11       0.0268
     42 H           0.0472   -3.5416    3.7911 H       1  UNL11       0.0268
     43 H          -0.0566   -6.1724    3.2966 H       1  UNL11       0.0269
     44 H          -1.5288   -5.1038    3.3063 H       1  UNL11       0.0269
     45 H          -1.9381   -5.3334    1.0596 H       1  UNL11       0.0316
     46 H          -0.9815   -6.8154    1.2913 H       1  UNL11       0.0316
     47 H           0.1806   -0.4443   -0.0735 H       1  UNL11       0.0628
     48 H          -3.1810    2.4897    1.3781 H       1  UNL11       0.0480
     49 H          -3.1359    3.3131    3.0316 H       1  UNL11       0.0480
     50 H          -3.0338    4.9910    1.2937 H       1  UNL11       0.0480
     51 H          -1.5239    4.1636    0.6112 H       1  UNL11       0.0480
     52 H          -2.5464    6.9919    1.0200 H       1  UNL11       0.0652
     53 H          -1.7130    9.3047    0.6296 H       1  UNL11       0.0619
     54 H           0.4353   10.0279    1.6342 H       1  UNL11       0.0633
     55 H           1.6594    8.4571    2.9691 H       1  UNL11       0.0830
     56 H          -0.1574    4.8514    4.2778 H       1  UNL11       0.0480
     57 H          -1.8580    4.3559    4.3590 H       1  UNL11       0.0480
     58 H           0.5167    2.9921    3.1080 H       1  UNL11       0.0480
     59 H          -0.6427    2.4419    4.4698 H       1  UNL11       0.0480
@<TRIPOS>BOND
     1     1     2    2
     2     2     3    1
     3     2    21   am
     4     3     4   ar
     5     4     5   ar
     6     4    33    1
     7     5     6   ar
     8     5    34    1
     9     6     7   ar
    10     6    35    1
    11     7     8    1
    12     7    20   ar
    13     8     9    1
    14     8    36    1
    15     8    37    1
    16     9    10    2
    17    10    11    1
    18    11    12   am
    19    11    38    1
    20    12    13    2
    21    12    14    1
    22    14    15    2
    23    15    16    1
    24    15     9    1
    25    16    17    1
    26    16    39    1
    27    16    40    1
    28    17    18    1
    29    17    41    1
    30    17    42    1
    31    18    19    1
    32    18    43    1
    33    18    44    1
    34    19    14    1
    35    19    45    1
    36    19    46    1
    37    20     3   ar
    38    20    47    1
    39    21    22    1
    40    22    23    1
    41    22    48    1
    42    22    49    1
    43    23    24    1
    44    23    50    1
    45    23    51    1
    46    24    25    1
    47    24    31    1
    48    25    26   ar
    49    26    27   ar
    50    26    52    1
    51    27    28   ar
    52    27    53    1
    53    28    29   ar
    54    28    54    1
    55    29    30   ar
    56    29    55    1
    57    30    25   ar
    58    31    32    1
    59    31    56    1
    60    31    57    1
    61    32    21    1
    62    32    58    1
    63    32    59    1
@<TRIPOS>MOLECULE
*****
 59 63 0 0 0
SMALL
GASTEIGER

@<TRIPOS>ATOM
      1 O          -1.2634    1.7451    0.5852 O.2     1  UNL11      -0.2700
      2 C          -1.1213    1.1791    1.7800 C.2     1  UNL11       0.2467
      3 C          -0.0128    0.2638    1.9168 C.ar    1  UNL11       0.0372
      4 C           0.5720    0.1646    3.1999 C.ar    1  UNL11      -0.0496
      5 C           1.6430   -0.6586    3.3810 C.ar    1  UNL11      -0.0608
      6 C           2.1775   -1.4009    2.3519 C.ar    1  UNL11      -0.0582
      7 C           1.6525   -1.3437    1.0881 C.ar    1  UNL11      -0.0407
      8 C           2.1622   -2.0994   -0.0926 C.3     1  UNL11       0.0208
      9 C           2.6031   -1.2725   -1.2061 C.2     1  UNL11       0.1150
     10 N           2.0037   -1.3933   -2.4332 N.2     1  UNL11      -0.0076
     11 N           2.3476   -0.6243   -3.4452 N.am    1  UNL11      -0.0358
     12 C           3.2935    0.3242   -3.3660 C.2     1  UNL11       0.4340
     13 O           3.6058    1.0494   -4.3484 O.2     1  UNL11      -0.2120
     14 C           3.9312    0.4986   -2.1767 C.2     1  UNL11       0.0740
     15 C           3.5602   -0.3253   -1.1038 C.2     1  UNL11      -0.0072
     16 C           4.3580   -0.0745    0.1298 C.3     1  UNL11      -0.0252
     17 C           4.1513    1.4036    0.4348 C.3     1  UNL11      -0.0487
     18 C           4.8731    2.1938   -0.6109 C.3     1  UNL11      -0.0484
     19 C           4.9940    1.5089   -1.9309 C.3     1  UNL11      -0.0176
     20 C           0.5413   -0.4814    0.9243 C.ar    1  UNL11      -0.0461
     21 N          -2.0615    1.5508    2.7320 N.am    1  UNL11      -0.2945
     22 C          -3.0796    2.5225    2.2683 C.3     1  UNL11       0.0308
     23 C          -2.8274    3.7888    3.0825 C.3     1  UNL11       0.0294
     24 N          -2.9328    3.4209    4.5029 N.pl3   1  UNL11      -0.3122
     25 C          -2.9149    4.4575    5.4535 C.ar    1  UNL11       0.1213
     26 C          -3.3659    5.7368    5.2595 C.ar    1  UNL11      -0.0217
     27 C          -3.3242    6.7270    6.2351 C.ar    1  UNL11      -0.0571
     28 C          -2.8086    6.4429    7.4742 C.ar    1  UNL11      -0.0435
     29 C          -2.3483    5.1360    7.6713 C.ar    1  UNL11       0.0297
     30 N          -2.4105    4.2223    6.7026 N.ar    1  UNL11      -0.2403
     31 C          -3.0537    2.0475    4.8673 C.3     1  UNL11       0.0294
     32 C          -2.1120    1.1282    4.0686 C.3     1  UNL11       0.0308
     33 H           0.1633    0.7448    4.0433 H       1  UNL11       0.0625
     34 H           2.1183   -0.7600    4.3544 H       1  UNL11       0.0618
     35 H           3.0273   -2.0535    2.5602 H       1  UNL11       0.0620
     36 H           2.9477   -2.7769    0.3063 H       1  UNL11       0.0379
     37 H           1.3460   -2.7982   -0.4424 H       1  UNL11       0.0379
     38 H           1.8679   -0.7479   -4.3606 H       1  UNL11       0.4828
     39 H           4.0190   -0.6597    0.9657 H       1  UNL11       0.0314
     40 H           5.4390   -0.2641   -0.1247 H       1  UNL11       0.0314
     41 H           3.0458    1.5588    0.3910 H       1  UNL11       0.0268
     42 H           4.5625    1.5792    1.4379 H       1  UNL11       0.0268
     43 H           4.3368    3.1833   -0.6958 H       1  UNL11       0.0269
     44 H           5.9016    2.3958   -0.2051 H       1  UNL11       0.0269
     45 H           6.0166    1.0446   -2.0567 H       1  UNL11       0.0316
     46 H           4.9473    2.2976   -2.7287 H       1  UNL11       0.0316
     47 H           0.1806   -0.4443   -0.0735 H       1  UNL11       0.0628
     48 H          -2.9757    2.7123    1.2037 H       1  UNL11       0.0480
     49 H          -4.0653    2.1190    2.5728 H       1  UNL11       0.0480
     50 H          -3.6441    4.4841    2.8467 H       1  UNL11       0.0480
     51 H          -1.8249    4.1369    2.8718 H       1  UNL11       0.0480
     52 H          -3.7802    5.9844    4.2772 H       1  UNL11       0.0652
     53 H          -3.6862    7.7257    6.0535 H       1  UNL11       0.0619
     54 H          -2.7460    7.1683    8.2789 H       1  UNL11       0.0633
     55 H          -1.9469    4.9397    8.6569 H       1  UNL11       0.0830
     56 H          -2.8635    1.8207    5.9281 H       1  UNL11       0.0480
     57 H          -4.0851    1.7018    4.6484 H       1  UNL11       0.0480
     58 H          -1.1120    1.2367    4.5603 H       1  UNL11       0.0480
     59 H          -2.5482    0.0934    4.1974 H       1  UNL11       0.0480
@<TRIPOS>BOND
     1     1     2    2
     2     2     3    1
     3     2    21   am
     4     3     4   ar
     5     4     5   ar
     6     4    33    1
     7     5     6   ar
     8     5    34    1
     9     6     7   ar
    10     6    35    1
    11     7     8    1
    12     7    20   ar
    13     8     9    1
    14     8    36    1
    15     8    37    1
    16     9    10    2
    17    10    11    1
    18    11    12   am
    19    11    38    1
    20    12    13    2
    21    12    14    1
    22    14    15    2
    23    15    16    1
    24    15     9    1
    25    16    17    1
    26    16    39    1
    27    16    40    1
    28    17    18    1
    29    17    41    1
    30    17    42    1
    31    18    19    1
    32    18    43    1
    33    18    44    1
    34    19    14    1
    35    19    45    1
    36    19    46    1
    37    20     3   ar
    38    20    47    1
    39    21    22    1
    40    22    23    1
    41    22    48    1
    42    22    49    1
    43    23    24    1
    44    23    50    1
    45    23    51    1
    46    24    25    1
    47    24    31    1
    48    25    26   ar
    49    26    27   ar
    50    26    52    1
    51    27    28   ar
    52    27    53    1
    53    28    29   ar
    54    28    54    1
    55    29    30   ar
    56    29    55    1
    57    30    25   ar
    58    31    32    1
    59    31    56    1
    60    31    57    1
    61    32    21    1
    62    32    58    1
    63    32    59    1
@<TRIPOS>MOLECULE
*****
 59 63 0 0 0
SMALL
GASTEIGER

@<TRIPOS>ATOM
      1 O          -2.0323    0.8560    0.8669 O.2     1  UNL11      -0.2700
      2 C          -1.1213    1.1791    1.7800 C.2     1  UNL11       0.2467
      3 C          -0.0128    0.2638    1.9168 C.ar    1  UNL11       0.0372
      4 C           0.5720    0.1646    3.1999 C.ar    1  UNL11      -0.0496
      5 C           1.6430   -0.6586    3.3810 C.ar    1  UNL11      -0.0608
      6 C           2.1775   -1.4009    2.3519 C.ar    1  UNL11      -0.0582
      7 C           1.6525   -1.3437    1.0881 C.ar    1  UNL11      -0.0407
      8 C           2.1622   -2.0994   -0.0926 C.3     1  UNL11       0.0208
      9 C           3.5890   -2.3855   -0.0681 C.2     1  UNL11       0.1150
     10 N           4.4511   -1.5340    0.5731 N.2     1  UNL11      -0.0076
     11 N           5.7397   -1.7925    0.6541 N.am    1  UNL11      -0.0358
     12 C           6.3093   -2.8879    0.1285 C.2     1  UNL11       0.4340
     13 O           7.5457   -3.1150    0.2190 O.2     1  UNL11      -0.2120
     14 C           5.5121   -3.7770   -0.5238 C.2     1  UNL11       0.0740
     15 C           4.1408   -3.4939   -0.6071 C.2     1  UNL11      -0.0072
     16 C           3.3790   -4.5129   -1.3832 C.3     1  UNL11      -0.0252
     17 C           3.6570   -5.8321   -0.6740 C.3     1  UNL11      -0.0487
     18 C           5.0850   -6.1990   -0.9294 C.3     1  UNL11      -0.0484
     19 C           5.9926   -5.0359   -1.1524 C.3     1  UNL11      -0.0176
     20 C           0.5413   -0.4814    0.9243 C.ar    1  UNL11      -0.0461
     21 N          -1.3643    2.3567    2.4747 N.am    1  UNL11      -0.2945
     22 C          -2.6036    3.0724    2.0904 C.3     1  UNL11       0.0308
     23 C          -2.1340    4.3884    1.4759 C.3     1  UNL11       0.0294
     24 N          -1.3184    5.0752    2.4893 N.pl3   1  UNL11      -0.3122
     25 C          -0.9153    6.3964    2.2238 C.ar    1  UNL11       0.1213
     26 C           0.2362    6.9922    2.6672 C.ar    1  UNL11      -0.0217
     27 C           0.5881    8.3058    2.3761 C.ar    1  UNL11      -0.0571
     28 C          -0.2410    9.0792    1.6037 C.ar    1  UNL11      -0.0435
     29 C          -1.4168    8.4696    1.1513 C.ar    1  UNL11       0.0297
     30 N          -1.7087    7.2057    1.4586 N.ar    1  UNL11      -0.2403
     31 C          -0.9711    4.3942    3.6932 C.3     1  UNL11       0.0294
     32 C          -0.5456    2.9338    3.4568 C.3     1  UNL11       0.0308
     33 H           0.1633    0.7448    4.0433 H       1  UNL11       0.0625
     34 H           2.1183   -0.7600    4.3544 H       1  UNL11       0.0618
     35 H           3.0273   -2.0535    2.5602 H       1  UNL11       0.0620
     36 H           1.5207   -3.0042   -0.1643 H       1  UNL11       0.0379
     37 H           1.9124   -1.5090   -1.0231 H       1  UNL11       0.0379
     38 H           6.3606   -1.1201    1.1498 H       1  UNL11       0.4828
     39 H           2.3202   -4.3255   -1.3810 H       1  UNL11       0.0314
     40 H           3.8143   -4.5389   -2.4220 H       1  UNL11       0.0314
     41 H           3.4617   -5.6291    0.4071 H       1  UNL11       0.0268
     42 H           2.9622   -6.5701   -1.0968 H       1  UNL11       0.0268
     43 H           5.4169   -6.8328   -0.0566 H       1  UNL11       0.0269
     44 H           5.0884   -6.8498   -1.8457 H       1  UNL11       0.0269
     45 H           6.1884   -4.8773   -2.2540 H       1  UNL11       0.0316
     46 H           6.9972   -5.3023   -0.7275 H       1  UNL11       0.0316
     47 H           0.1806   -0.4443   -0.0735 H       1  UNL11       0.0628
     48 H          -3.1810    2.4897    1.3781 H       1  UNL11       0.0480
     49 H          -3.1359    3.3131    3.0316 H       1  UNL11       0.0480
     50 H          -3.0338    4.9910    1.2937 H       1  UNL11       0.0480
     51 H          -1.5239    4.1636    0.6112 H       1  UNL11       0.0480
     52 H           0.9111    6.3925    3.2859 H       1  UNL11       0.0652
     53 H           1.5010    8.7483    2.7396 H       1  UNL11       0.0619
     54 H          -0.0270   10.1099    1.3401 H       1  UNL11       0.0633
     55 H          -2.0518    9.1020    0.5448 H       1  UNL11       0.0830
     56 H          -0.1574    4.8514    4.2778 H       1  UNL11       0.0480
     57 H          -1.8580    4.3559    4.3590 H       1  UNL11       0.0480
     58 H           0.5167    2.9921    3.1080 H       1  UNL11       0.0480
     59 H          -0.6427    2.4419    4.4698 H       1  UNL11       0.0480
@<TRIPOS>BOND
     1     1     2    2
     2     2     3    1
     3     2    21   am
     4     3     4   ar
     5     4     5   ar
     6     4    33    1
     7     5     6   ar
     8     5    34    1
     9     6     7   ar
    10     6    35    1
    11     7     8    1
    12     7    20   ar
    13     8     9    1
    14     8    36    1
    15     8    37    1
    16     9    10    2
    17    10    11    1
    18    11    12   am
    19    11    38    1
    20    12    13    2
    21    12    14    1
    22    14    15    2
    23    15    16    1
    24    15     9    1
    25    16    17    1
    26    16    39    1
    27    16    40    1
    28    17    18    1
    29    17    41    1
    30    17    42    1
    31    18    19    1
    32    18    43    1
    33    18    44    1
    34    19    14    1
    35    19    45    1
    36    19    46    1
    37    20     3   ar
    38    20    47    1
    39    21    22    1
    40    22    23    1
    41    22    48    1
    42    22    49    1
    43    23    24    1
    44    23    50    1
    45    23    51    1
    46    24    25    1
    47    24    31    1
    48    25    26   ar
    49    26    27   ar
    50    26    52    1
    51    27    28   ar
    52    27    53    1
    53    28    29   ar
    54    28    54    1
    55    29    30   ar
    56    29    55    1
    57    30    25   ar
    58    31    32    1
    59    31    56    1
    60    31    57    1
    61    32    21    1
    62    32    58    1
    63    32    59    1
@<TRIPOS>MOLECULE
*****
 59 63 0 0 0
SMALL
GASTEIGER

@<TRIPOS>ATOM
      1 O          -1.6700    1.2505    0.5709 O.2     1  UNL11      -0.2700
      2 C          -1.1213    1.1791    1.7800 C.2     1  UNL11       0.2467
      3 C          -0.0128    0.2638    1.9168 C.ar    1  UNL11       0.0372
      4 C           0.5720    0.1646    3.1999 C.ar    1  UNL11      -0.0496
      5 C           1.6430   -0.6586    3.3810 C.ar    1  UNL11      -0.0608
      6 C           2.1775   -1.4009    2.3519 C.ar    1  UNL11      -0.0582
      7 C           1.6525   -1.3437    1.0881 C.ar    1  UNL11      -0.0407
      8 C           2.1622   -2.0994   -0.0926 C.3     1  UNL11       0.0208
      9 C           3.3115   -2.9515    0.1744 C.2     1  UNL11       0.1150
     10 N           3.1280   -4.2557    0.5551 N.2     1  UNL11      -0.0076
     11 N           4.1483   -5.0637    0.7551 N.am    1  UNL11      -0.0358
     12 C           5.4285   -4.6900    0.6067 C.2     1  UNL11       0.4340
     13 O           6.3896   -5.4813    0.8031 O.2     1  UNL11      -0.2120
     14 C           5.6845   -3.4074    0.2309 C.2     1  UNL11       0.0740
     15 C           4.5924   -2.5525    0.0211 C.2     1  UNL11      -0.0072
     16 C           4.9969   -1.1643   -0.3400 C.3     1  UNL11      -0.0252
     17 C           5.8593   -1.3205   -1.5860 C.3     1  UNL11      -0.0487
     18 C           7.1479   -1.9607   -1.1756 C.3     1  UNL11      -0.0484
     19 C           7.0455   -2.8470    0.0204 C.3     1  UNL11      -0.0176
     20 C           0.5413   -0.4814    0.9243 C.ar    1  UNL11      -0.0461
     21 N          -1.6926    1.9993    2.7440 N.am    1  UNL11      -0.2945
     22 C          -2.8276    2.8288    2.2753 C.3     1  UNL11       0.0308
     23 C          -2.3419    4.2719    2.3816 C.3     1  UNL11       0.0294
     24 N          -1.9542    4.4984    3.7824 N.pl3   1  UNL11      -0.3122
     25 C          -1.6381    5.8123    4.1728 C.ar    1  UNL11       0.1213
     26 C          -2.1548    6.9602    3.6316 C.ar    1  UNL11      -0.0217
     27 C          -1.8070    8.2386    4.0546 C.ar    1  UNL11      -0.0571
     28 C          -0.8977    8.3977    5.0694 C.ar    1  UNL11      -0.0435
     29 C          -0.3707    7.2246    5.6216 C.ar    1  UNL11       0.0297
     30 N          -0.7370    6.0214    5.1799 N.ar    1  UNL11      -0.2403
     31 C          -1.9162    3.3984    4.6890 C.3     1  UNL11       0.0294
     32 C          -1.2804    2.1367    4.0777 C.3     1  UNL11       0.0308
     33 H           0.1633    0.7448    4.0433 H       1  UNL11       0.0625
     34 H           2.1183   -0.7600    4.3544 H       1  UNL11       0.0618
     35 H           3.0273   -2.0535    2.5602 H       1  UNL11       0.0620
     36 H           1.2817   -2.6421   -0.4993 H       1  UNL11       0.0379
     37 H           2.4252   -1.3545   -0.9006 H       1  UNL11       0.0379
     38 H           3.9662   -6.0471    1.0435 H       1  UNL11       0.4828
     39 H           4.1547   -0.5360   -0.5683 H       1  UNL11       0.0314
     40 H           5.6211   -0.7646    0.5084 H       1  UNL11       0.0314
     41 H           5.2655   -1.9721   -2.2722 H       1  UNL11       0.0268
     42 H           6.0137   -0.3114   -1.9912 H       1  UNL11       0.0268
     43 H           7.5362   -2.5139   -2.0795 H       1  UNL11       0.0269
     44 H           7.8639   -1.1233   -0.9533 H       1  UNL11       0.0269
     45 H           7.4024   -2.3166    0.9522 H       1  UNL11       0.0316
     46 H           7.7758   -3.6887   -0.1168 H       1  UNL11       0.0316
     47 H           0.1806   -0.4443   -0.0735 H       1  UNL11       0.0628
     48 H          -3.0929    2.5775    1.2522 H       1  UNL11       0.0480
     49 H          -3.6440    2.6948    3.0119 H       1  UNL11       0.0480
     50 H          -3.2046    4.9132    2.1565 H       1  UNL11       0.0480
     51 H          -1.4768    4.3897    1.7426 H       1  UNL11       0.0480
     52 H          -2.8813    6.8552    2.8198 H       1  UNL11       0.0652
     53 H          -2.2298    9.1242    3.6093 H       1  UNL11       0.0619
     54 H          -0.5824    9.3653    5.4464 H       1  UNL11       0.0633
     55 H           0.3437    7.3794    6.4195 H       1  UNL11       0.0830
     56 H          -1.3746    3.5795    5.6307 H       1  UNL11       0.0480
     57 H          -2.9536    3.1199    4.9677 H       1  UNL11       0.0480
     58 H          -0.1755    2.3078    4.1391 H       1  UNL11       0.0480
     59 H          -1.6258    1.2924    4.7450 H       1  UNL11       0.0480
@<TRIPOS>BOND
     1     1     2    2
     2     2     3    1
     3     2    21   am
     4     3     4   ar
     5     4     5   ar
     6     4    33    1
     7     5     6   ar
     8     5    34    1
     9     6     7   ar
    10     6    35    1
    11     7     8    1
    12     7    20   ar
    13     8     9    1
    14     8    36    1
    15     8    37    1
    16     9    10    2
    17    10    11    1
    18    11    12   am
    19    11    38    1
    20    12    13    2
    21    12    14    1
    22    14    15    2
    23    15    16    1
    24    15     9    1
    25    16    17    1
    26    16    39    1
    27    16    40    1
    28    17    18    1
    29    17    41    1
    30    17    42    1
    31    18    19    1
    32    18    43    1
    33    18    44    1
    34    19    14    1
    35    19    45    1
    36    19    46    1
    37    20     3   ar
    38    20    47    1
    39    21    22    1
    40    22    23    1
    41    22    48    1
    42    22    49    1
    43    23    24    1
    44    23    50    1
    45    23    51    1
    46    24    25    1
    47    24    31    1
    48    25    26   ar
    49    26    27   ar
    50    26    52    1
    51    27    28   ar
    52    27    53    1
    53    28    29   ar
    54    28    54    1
    55    29    30   ar
    56    29    55    1
    57    30    25   ar
    58    31    32    1
    59    31    56    1
    60    31    57    1
    61    32    21    1
    62    32    58    1
    63    32    59    1
@<TRIPOS>MOLECULE
*****
 59 63 0 0 0
SMALL
GASTEIGER

@<TRIPOS>ATOM
      1 O          -1.8625    1.3608    2.8688 O.2     1  UNL11      -0.2700
      2 C          -1.1213    1.1791    1.7800 C.2     1  UNL11       0.2467
      3 C          -0.0128    0.2638    1.9168 C.ar    1  UNL11       0.0372
      4 C           0.5720    0.1646    3.1999 C.ar    1  UNL11      -0.0496
      5 C           1.6430   -0.6586    3.3810 C.ar    1  UNL11      -0.0608
      6 C           2.1775   -1.4009    2.3519 C.ar    1  UNL11      -0.0582
      7 C           1.6525   -1.3437    1.0881 C.ar    1  UNL11      -0.0407
      8 C           2.1622   -2.0994   -0.0926 C.3     1  UNL11       0.0208
      9 C           3.3115   -2.9515    0.1744 C.2     1  UNL11       0.1150
     10 N           3.1280   -4.2557    0.5551 N.2     1  UNL11      -0.0076
     11 N           4.1483   -5.0637    0.7551 N.am    1  UNL11      -0.0358
     12 C           5.4285   -4.6900    0.6067 C.2     1  UNL11       0.4340
     13 O           6.3896   -5.4813    0.8031 O.2     1  UNL11      -0.2120
     14 C           5.6845   -3.4074    0.2309 C.2     1  UNL11       0.0740
     15 C           4.5924   -2.5525    0.0211 C.2     1  UNL11      -0.0072
     16 C           4.9969   -1.1643   -0.3400 C.3     1  UNL11      -0.0252
     17 C           5.8593   -1.3205   -1.5860 C.3     1  UNL11      -0.0487
     18 C           7.1479   -1.9607   -1.1756 C.3     1  UNL11      -0.0484
     19 C           7.0455   -2.8470    0.0204 C.3     1  UNL11      -0.0176
     20 C           0.5413   -0.4814    0.9243 C.ar    1  UNL11      -0.0461
     21 N          -1.5203    1.8965    0.6600 N.am    1  UNL11      -0.2945
     22 C          -2.7126    2.7553    0.8518 C.3     1  UNL11       0.0308
     23 C          -3.7891    2.1559   -0.0492 C.3     1  UNL11       0.0294
     24 N          -3.2541    2.1467   -1.4194 N.pl3   1  UNL11      -0.3122
     25 C          -4.1300    1.8024   -2.4648 C.ar    1  UNL11       0.1213
     26 C          -5.4835    2.0147   -2.4850 C.ar    1  UNL11      -0.0217
     27 C          -6.3066    1.6532   -3.5462 C.ar    1  UNL11      -0.0571
     28 C          -5.7672    1.0473   -4.6525 C.ar    1  UNL11      -0.0435
     29 C          -4.3846    0.8312   -4.6309 C.ar    1  UNL11       0.0297
     30 N          -3.6389    1.1966   -3.5881 N.ar    1  UNL11      -0.2403
     31 C          -1.8875    2.4867   -1.6438 C.3     1  UNL11       0.0294
     32 C          -0.9336    1.8555   -0.6136 C.3     1  UNL11       0.0308
     33 H           0.1633    0.7448    4.0433 H       1  UNL11       0.0625
     34 H           2.1183   -0.7600    4.3544 H       1  UNL11       0.0618
     35 H           3.0273   -2.0535    2.5602 H       1  UNL11       0.0620
     36 H           1.2817   -2.6421   -0.4993 H       1  UNL11       0.0379
     37 H           2.4252   -1.3545   -0.9006 H       1  UNL11       0.0379
     38 H           3.9662   -6.0471    1.0435 H       1  UNL11       0.4828
     39 H           4.1547   -0.5360   -0.5683 H       1  UNL11       0.0314
     40 H           5.6211   -0.7646    0.5084 H       1  UNL11       0.0314
     41 H           5.2655   -1.9721   -2.2722 H       1  UNL11       0.0268
     42 H           6.0137   -0.3114   -1.9912 H       1  UNL11       0.0268
     43 H           7.5362   -2.5139   -2.0795 H       1  UNL11       0.0269
     44 H           7.8639   -1.1233   -0.9533 H       1  UNL11       0.0269
     45 H           7.4024   -2.3166    0.9522 H       1  UNL11       0.0316
     46 H           7.7758   -3.6887   -0.1168 H       1  UNL11       0.0316
     47 H           0.1806   -0.4443   -0.0735 H       1  UNL11       0.0628
     48 H          -3.0255    2.7549    1.8921 H       1  UNL11       0.0480
     49 H          -2.4536    3.7531    0.4463 H       1  UNL11       0.0480
     50 H          -4.6448    2.8436   -0.0197 H       1  UNL11       0.0480
     51 H          -3.9783    1.1405    0.2728 H       1  UNL11       0.0480
     52 H          -5.9340    2.4959   -1.6113 H       1  UNL11       0.0652
     53 H          -7.3692    1.8324   -3.5338 H       1  UNL11       0.0619
     54 H          -6.3520    0.7398   -5.5134 H       1  UNL11       0.0633
     55 H          -3.9860    0.3519   -5.5155 H       1  UNL11       0.0830
     56 H          -1.4866    2.2090   -2.6313 H       1  UNL11       0.0480
     57 H          -1.7650    3.5854   -1.5488 H       1  UNL11       0.0480
     58 H          -0.7931    0.7985   -0.9552 H       1  UNL11       0.0480
     59 H           0.0143    2.4660   -0.6924 H       1  UNL11       0.0480
@<TRIPOS>BOND
     1     1     2    2
     2     2     3    1
     3     2    21   am
     4     3     4   ar
     5     4     5   ar
     6     4    33    1
     7     5     6   ar
     8     5    34    1
     9     6     7   ar
    10     6    35    1
    11     7     8    1
    12     7    20   ar
    13     8     9    1
    14     8    36    1
    15     8    37    1
    16     9    10    2
    17    10    11    1
    18    11    12   am
    19    11    38    1
    20    12    13    2
    21    12    14    1
    22    14    15    2
    23    15    16    1
    24    15     9    1
    25    16    17    1
    26    16    39    1
    27    16    40    1
    28    17    18    1
    29    17    41    1
    30    17    42    1
    31    18    19    1
    32    18    43    1
    33    18    44    1
    34    19    14    1
    35    19    45    1
    36    19    46    1
    37    20     3   ar
    38    20    47    1
    39    21    22    1
    40    22    23    1
    41    22    48    1
    42    22    49    1
    43    23    24    1
    44    23    50    1
    45    23    51    1
    46    24    25    1
    47    24    31    1
    48    25    26   ar
    49    26    27   ar
    50    26    52    1
    51    27    28   ar
    52    27    53    1
    53    28    29   ar
    54    28    54    1
    55    29    30   ar
    56    29    55    1
    57    30    25   ar
    58    31    32    1
    59    31    56    1
    60    31    57    1
    61    32    21    1
    62    32    58    1
    63    32    59    1
@<TRIPOS>MOLECULE
*****
 59 63 0 0 0
SMALL
GASTEIGER

@<TRIPOS>ATOM
      1 O          -1.1098    2.2311    2.5931 O.2     1  UNL11      -0.2700
      2 C          -1.1213    1.1791    1.7800 C.2     1  UNL11       0.2467
      3 C          -0.0128    0.2638    1.9168 C.ar    1  UNL11       0.0372
      4 C           0.5720    0.1646    3.1999 C.ar    1  UNL11      -0.0496
      5 C           1.6430   -0.6586    3.3810 C.ar    1  UNL11      -0.0608
      6 C           2.1775   -1.4009    2.3519 C.ar    1  UNL11      -0.0582
      7 C           1.6525   -1.3437    1.0881 C.ar    1  UNL11      -0.0407
      8 C           2.1622   -2.0994   -0.0926 C.3     1  UNL11       0.0208
      9 C           1.5562   -3.4076   -0.2915 C.2     1  UNL11       0.1150
     10 N           1.4285   -3.9223   -1.5557 N.2     1  UNL11      -0.0076
     11 N           0.9300   -5.1234   -1.7620 N.am    1  UNL11      -0.0358
     12 C           0.5128   -5.9312   -0.7751 C.2     1  UNL11       0.4340
     13 O           0.0393   -7.0780   -0.9964 O.2     1  UNL11      -0.2120
     14 C           0.6094   -5.4836    0.5063 C.2     1  UNL11       0.0740
     15 C           1.1403   -4.2026    0.7178 C.2     1  UNL11      -0.0072
     16 C           1.1526   -3.8040    2.1538 C.3     1  UNL11      -0.0252
     17 C           1.9603   -4.8896    2.8535 C.3     1  UNL11      -0.0487
     18 C           1.1445   -6.1439    2.8495 C.3     1  UNL11      -0.0484
     19 C           0.1958   -6.2616    1.7039 C.3     1  UNL11      -0.0176
     20 C           0.5413   -0.4814    0.9243 C.ar    1  UNL11      -0.0461
     21 N          -2.2027    1.1076    0.9118 N.am    1  UNL11      -0.2945
     22 C          -3.1786    2.2170    1.0259 C.3     1  UNL11       0.0308
     23 C          -4.4679    1.5689    1.5235 C.3     1  UNL11       0.0294
     24 N          -4.8344    0.5273    0.5516 N.pl3   1  UNL11      -0.3122
     25 C          -6.0873   -0.0955    0.6967 C.ar    1  UNL11       0.1213
     26 C          -6.7604   -0.2872    1.8748 C.ar    1  UNL11      -0.0217
     27 C          -7.9998   -0.9117    1.9637 C.ar    1  UNL11      -0.0571
     28 C          -8.6135   -1.3752    0.8276 C.ar    1  UNL11      -0.0435
     29 C          -7.9252   -1.1787   -0.3750 C.ar    1  UNL11       0.0297
     30 N          -6.7378   -0.5736   -0.4070 N.ar    1  UNL11      -0.2403
     31 C          -3.9261    0.1895   -0.4945 C.3     1  UNL11       0.0294
     32 C          -2.4669    0.0881   -0.0147 C.3     1  UNL11       0.0308
     33 H           0.1633    0.7448    4.0433 H       1  UNL11       0.0625
     34 H           2.1183   -0.7600    4.3544 H       1  UNL11       0.0618
     35 H           3.0273   -2.0535    2.5602 H       1  UNL11       0.0620
     36 H           2.0458   -1.4110   -0.9573 H       1  UNL11       0.0379
     37 H           3.2806   -2.2155    0.0197 H       1  UNL11       0.0379
     38 H           0.8500   -5.4775   -2.7375 H       1  UNL11       0.4828
     39 H           1.6260   -2.8517    2.3130 H       1  UNL11       0.0314
     40 H           0.0868   -3.8267    2.5181 H       1  UNL11       0.0314
     41 H           2.8945   -4.9933    2.2496 H       1  UNL11       0.0268
     42 H           2.1548   -4.5304    3.8730 H       1  UNL11       0.0268
     43 H           1.8742   -7.0042    2.8839 H       1  UNL11       0.0269
     44 H           0.5631   -6.1497    3.8113 H       1  UNL11       0.0269
     45 H          -0.8540   -5.9806    2.0138 H       1  UNL11       0.0316
     46 H           0.1235   -7.3488    1.4327 H       1  UNL11       0.0316
     47 H           0.1806   -0.4443   -0.0735 H       1  UNL11       0.0628
     48 H          -2.8245    2.9728    1.7214 H       1  UNL11       0.0480
     49 H          -3.3633    2.5842   -0.0028 H       1  UNL11       0.0480
     50 H          -5.2422    2.3474    1.5005 H       1  UNL11       0.0480
     51 H          -4.2730    1.1143    2.4857 H       1  UNL11       0.0480
     52 H          -6.2874    0.0743    2.7932 H       1  UNL11       0.0652
     53 H          -8.5058   -1.0492    2.9052 H       1  UNL11       0.0619
     54 H          -9.5786   -1.8714    0.8267 H       1  UNL11       0.0633
     55 H          -8.4318   -1.5538   -1.2546 H       1  UNL11       0.0830
     56 H          -4.1356   -0.7577   -1.0158 H       1  UNL11       0.0480
     57 H          -3.9452    0.9875   -1.2654 H       1  UNL11       0.0480
     58 H          -2.3874   -0.9198    0.4665 H       1  UNL11       0.0480
     59 H          -1.8510    0.1672   -0.9590 H       1  UNL11       0.0480
@<TRIPOS>BOND
     1     1     2    2
     2     2     3    1
     3     2    21   am
     4     3     4   ar
     5     4     5   ar
     6     4    33    1
     7     5     6   ar
     8     5    34    1
     9     6     7   ar
    10     6    35    1
    11     7     8    1
    12     7    20   ar
    13     8     9    1
    14     8    36    1
    15     8    37    1
    16     9    10    2
    17    10    11    1
    18    11    12   am
    19    11    38    1
    20    12    13    2
    21    12    14    1
    22    14    15    2
    23    15    16    1
    24    15     9    1
    25    16    17    1
    26    16    39    1
    27    16    40    1
    28    17    18    1
    29    17    41    1
    30    17    42    1
    31    18    19    1
    32    18    43    1
    33    18    44    1
    34    19    14    1
    35    19    45    1
    36    19    46    1
    37    20     3   ar
    38    20    47    1
    39    21    22    1
    40    22    23    1
    41    22    48    1
    42    22    49    1
    43    23    24    1
    44    23    50    1
    45    23    51    1
    46    24    25    1
    47    24    31    1
    48    25    26   ar
    49    26    27   ar
    50    26    52    1
    51    27    28   ar
    52    27    53    1
    53    28    29   ar
    54    28    54    1
    55    29    30   ar
    56    29    55    1
    57    30    25   ar
    58    31    32    1
    59    31    56    1
    60    31    57    1
    61    32    21    1
    62    32    58    1
    63    32    59    1
