@<TRIPOS>MOLECULE
*****
 34 35 0 0 0
SMALL
GASTEIGER

@<TRIPOS>ATOM
      1 C          -5.0442    0.7888   -1.8386 C.3     1  UNL11      -0.0395
      2 C          -3.6611    0.4825   -1.3995 C.ar    1  UNL11      -0.0473
      3 C          -2.6489    0.3071   -2.3302 C.ar    1  UNL11      -0.0551
      4 C          -1.3655    0.0228   -1.9185 C.ar    1  UNL11      -0.0190
      5 C          -1.0315   -0.0992   -0.5774 C.ar    1  UNL11       0.1322
      6 O           0.2777   -0.3849   -0.2681 O.3     1  UNL11      -0.4223
      7 C           1.3744   -0.0266   -1.0017 C.2     1  UNL11       0.3445
      8 O           1.5879    1.1989   -1.1849 O.2     1  UNL11      -0.2445
      9 C           2.3136   -0.9764   -1.5861 C.ar    1  UNL11       0.0616
     10 C           1.9072   -2.2319   -1.9862 C.ar    1  UNL11      -0.0476
     11 C           2.7546   -3.1545   -2.5391 C.ar    1  UNL11      -0.0588
     12 C           4.0669   -2.8457   -2.7146 C.ar    1  UNL11      -0.0316
     13 C           4.5290   -1.5968   -2.3296 C.ar    1  UNL11       0.1224
     14 N           5.8941   -1.2995   -2.5215 N.4     1  UNL11       0.0060
     15 O           6.3508   -0.2088   -2.1813 O.2     1  UNL11      -0.1300
     16 O           6.7080   -2.2328   -3.0889 O.2     1  UNL11      -0.3961
     17 C           3.6449   -0.6762   -1.7692 C.ar    1  UNL11      -0.0176
     18 C          -2.0292    0.0734    0.3473 C.ar    1  UNL11      -0.0161
     19 C          -3.3137    0.3581   -0.0687 C.ar    1  UNL11      -0.0441
     20 C          -4.3513    0.5344    0.9739 C.3     1  UNL11      -0.0393
     21 H          -4.9939    1.1314   -2.8994 H       1  UNL11       0.0278
     22 H          -5.4892    1.6462   -1.2782 H       1  UNL11       0.0278
     23 H          -5.7093   -0.0916   -1.8328 H       1  UNL11       0.0278
     24 H          -2.9265    0.4056   -3.3699 H       1  UNL11       0.0621
     25 H          -0.5764   -0.1128   -2.6753 H       1  UNL11       0.0654
     26 H           0.8695   -2.5052   -1.8589 H       1  UNL11       0.0626
     27 H           2.3530   -4.1268   -2.8294 H       1  UNL11       0.0618
     28 H           4.7180   -3.5902   -3.1533 H       1  UNL11       0.0640
     29 H           3.9883    0.2983   -1.4649 H       1  UNL11       0.0648
     30 H          -1.7629   -0.0234    1.4036 H       1  UNL11       0.0657
     31 H          -4.1007    1.3977    1.6457 H       1  UNL11       0.0278
     32 H          -5.3408    0.7582    0.5521 H       1  UNL11       0.0278
     33 H          -4.4567   -0.4052    1.5561 H       1  UNL11       0.0278
     34 H           6.3595   -3.0632   -3.3477 H       1  UNL11       0.3292
@<TRIPOS>BOND
     1     1     2    1
     2     1    21    1
     3     1    22    1
     4     1    23    1
     5     2     3   ar
     6     3     4   ar
     7     3    24    1
     8     4     5   ar
     9     4    25    1
    10     5     6    1
    11     5    18   ar
    12     6     7    1
    13     7     8    2
    14     7     9    1
    15     9    10   ar
    16    10    11   ar
    17    10    26    1
    18    11    12   ar
    19    11    27    1
    20    12    13   ar
    21    12    28    1
    22    13    14    1
    23    13    17   ar
    24    14    15    2
    25    14    16    1
    26    17     9   ar
    27    17    29    1
    28    18    19   ar
    29    18    30    1
    30    19    20    1
    31    19     2   ar
    32    20    31    1
    33    20    32    1
    34    20    33    1
    35    16    34    1
@<TRIPOS>MOLECULE
*****
 34 35 0 0 0
SMALL
GASTEIGER

@<TRIPOS>ATOM
      1 C          -5.0442    0.7888   -1.8386 C.3     1  UNL11      -0.0395
      2 C          -3.6611    0.4825   -1.3995 C.ar    1  UNL11      -0.0473
      3 C          -2.6489    0.3071   -2.3302 C.ar    1  UNL11      -0.0551
      4 C          -1.3655    0.0228   -1.9185 C.ar    1  UNL11      -0.0190
      5 C          -1.0315   -0.0992   -0.5774 C.ar    1  UNL11       0.1322
      6 O           0.2777   -0.3849   -0.2681 O.3     1  UNL11      -0.4223
      7 C           0.7890   -0.5546    0.9885 C.2     1  UNL11       0.3445
      8 O           0.3220   -1.4834    1.6958 O.2     1  UNL11      -0.2445
      9 C           1.8428    0.2741    1.5616 C.ar    1  UNL11       0.0616
     10 C           1.9897    1.5971    1.2014 C.ar    1  UNL11      -0.0476
     11 C           2.9643    2.4109    1.7140 C.ar    1  UNL11      -0.0588
     12 C           3.8450    1.9180    2.6250 C.ar    1  UNL11      -0.0316
     13 C           3.7427    0.5940    3.0225 C.ar    1  UNL11       0.1224
     14 N           4.6675    0.1054    3.9684 N.4     1  UNL11       0.0060
     15 O           5.5407    0.8408    4.4274 O.2     1  UNL11      -0.1300
     16 O           4.5872   -1.1930    4.3725 O.2     1  UNL11      -0.3961
     17 C           2.7411   -0.2127    2.4848 C.ar    1  UNL11      -0.0176
     18 C          -2.0292    0.0734    0.3473 C.ar    1  UNL11      -0.0161
     19 C          -3.3137    0.3581   -0.0687 C.ar    1  UNL11      -0.0441
     20 C          -4.3513    0.5344    0.9739 C.3     1  UNL11      -0.0393
     21 H          -4.9939    1.1314   -2.8994 H       1  UNL11       0.0278
     22 H          -5.4892    1.6462   -1.2782 H       1  UNL11       0.0278
     23 H          -5.7093   -0.0916   -1.8328 H       1  UNL11       0.0278
     24 H          -2.9265    0.4056   -3.3699 H       1  UNL11       0.0621
     25 H          -0.5764   -0.1128   -2.6753 H       1  UNL11       0.0654
     26 H           1.3038    2.0162    0.4792 H       1  UNL11       0.0626
     27 H           3.0123    3.4475    1.3762 H       1  UNL11       0.0618
     28 H           4.6067    2.5793    3.0164 H       1  UNL11       0.0640
     29 H           2.6482   -1.2435    2.7833 H       1  UNL11       0.0648
     30 H          -1.7629   -0.0234    1.4036 H       1  UNL11       0.0657
     31 H          -4.1007    1.3977    1.6457 H       1  UNL11       0.0278
     32 H          -5.3408    0.7582    0.5521 H       1  UNL11       0.0278
     33 H          -4.4567   -0.4052    1.5561 H       1  UNL11       0.0278
     34 H           3.9219   -1.7523    4.0225 H       1  UNL11       0.3292
@<TRIPOS>BOND
     1     1     2    1
     2     1    21    1
     3     1    22    1
     4     1    23    1
     5     2     3   ar
     6     3     4   ar
     7     3    24    1
     8     4     5   ar
     9     4    25    1
    10     5     6    1
    11     5    18   ar
    12     6     7    1
    13     7     8    2
    14     7     9    1
    15     9    10   ar
    16    10    11   ar
    17    10    26    1
    18    11    12   ar
    19    11    27    1
    20    12    13   ar
    21    12    28    1
    22    13    14    1
    23    13    17   ar
    24    14    15    2
    25    14    16    1
    26    17     9   ar
    27    17    29    1
    28    18    19   ar
    29    18    30    1
    30    19    20    1
    31    19     2   ar
    32    20    31    1
    33    20    32    1
    34    20    33    1
    35    16    34    1
@<TRIPOS>MOLECULE
*****
 34 35 0 0 0
SMALL
GASTEIGER

@<TRIPOS>ATOM
      1 C          -5.0442    0.7888   -1.8386 C.3     1  UNL11      -0.0395
      2 C          -3.6611    0.4825   -1.3995 C.ar    1  UNL11      -0.0473
      3 C          -2.6489    0.3071   -2.3302 C.ar    1  UNL11      -0.0551
      4 C          -1.3655    0.0228   -1.9185 C.ar    1  UNL11      -0.0190
      5 C          -1.0315   -0.0992   -0.5774 C.ar    1  UNL11       0.1322
      6 O           0.2777   -0.3849   -0.2681 O.3     1  UNL11      -0.4223
      7 C           1.3744   -0.0266   -1.0017 C.2     1  UNL11       0.3445
      8 O           1.4505   -0.4352   -2.1884 O.2     1  UNL11      -0.2445
      9 C           2.4630    0.8004   -0.4949 C.ar    1  UNL11       0.0616
     10 C           3.7507    0.6579   -0.9671 C.ar    1  UNL11      -0.0476
     11 C           4.8021    1.4125   -0.5197 C.ar    1  UNL11      -0.0588
     12 C           4.5965    2.3566    0.4368 C.ar    1  UNL11      -0.0316
     13 C           3.3209    2.5417    0.9465 C.ar    1  UNL11       0.1224
     14 N           3.1323    3.5268    1.9379 N.4     1  UNL11       0.0060
     15 O           2.2587    3.3938    2.7940 O.2     1  UNL11      -0.1300
     16 O           3.9278    4.6325    1.9411 O.2     1  UNL11      -0.3961
     17 C           2.2683    1.7599    0.4734 C.ar    1  UNL11      -0.0176
     18 C          -2.0292    0.0734    0.3473 C.ar    1  UNL11      -0.0161
     19 C          -3.3137    0.3581   -0.0687 C.ar    1  UNL11      -0.0441
     20 C          -4.3513    0.5344    0.9739 C.3     1  UNL11      -0.0393
     21 H          -4.9939    1.1314   -2.8994 H       1  UNL11       0.0278
     22 H          -5.4892    1.6462   -1.2782 H       1  UNL11       0.0278
     23 H          -5.7093   -0.0916   -1.8328 H       1  UNL11       0.0278
     24 H          -2.9265    0.4056   -3.3699 H       1  UNL11       0.0621
     25 H          -0.5764   -0.1128   -2.6753 H       1  UNL11       0.0654
     26 H           3.9440   -0.0848   -1.7278 H       1  UNL11       0.0626
     27 H           5.7914    1.2371   -0.9456 H       1  UNL11       0.0618
     28 H           5.4420    2.9409    0.7751 H       1  UNL11       0.0640
     29 H           1.2713    1.8914    0.8593 H       1  UNL11       0.0648
     30 H          -1.7629   -0.0234    1.4036 H       1  UNL11       0.0657
     31 H          -4.1007    1.3977    1.6457 H       1  UNL11       0.0278
     32 H          -5.3408    0.7582    0.5521 H       1  UNL11       0.0278
     33 H          -4.4567   -0.4052    1.5561 H       1  UNL11       0.0278
     34 H           4.5929    4.7331    1.2887 H       1  UNL11       0.3292
@<TRIPOS>BOND
     1     1     2    1
     2     1    21    1
     3     1    22    1
     4     1    23    1
     5     2     3   ar
     6     3     4   ar
     7     3    24    1
     8     4     5   ar
     9     4    25    1
    10     5     6    1
    11     5    18   ar
    12     6     7    1
    13     7     8    2
    14     7     9    1
    15     9    10   ar
    16    10    11   ar
    17    10    26    1
    18    11    12   ar
    19    11    27    1
    20    12    13   ar
    21    12    28    1
    22    13    14    1
    23    13    17   ar
    24    14    15    2
    25    14    16    1
    26    17     9   ar
    27    17    29    1
    28    18    19   ar
    29    18    30    1
    30    19    20    1
    31    19     2   ar
    32    20    31    1
    33    20    32    1
    34    20    33    1
    35    16    34    1
@<TRIPOS>MOLECULE
*****
 34 35 0 0 0
SMALL
GASTEIGER

@<TRIPOS>ATOM
      1 C          -5.0442    0.7888   -1.8386 C.3     1  UNL11      -0.0395
      2 C          -3.6611    0.4825   -1.3995 C.ar    1  UNL11      -0.0473
      3 C          -2.6489    0.3071   -2.3302 C.ar    1  UNL11      -0.0551
      4 C          -1.3655    0.0228   -1.9185 C.ar    1  UNL11      -0.0190
      5 C          -1.0315   -0.0992   -0.5774 C.ar    1  UNL11       0.1322
      6 O           0.2777   -0.3849   -0.2681 O.3     1  UNL11      -0.4223
      7 C           0.7121   -1.0891    0.8204 C.2     1  UNL11       0.3445
      8 O           0.4232   -0.6492    1.9623 O.2     1  UNL11      -0.2445
      9 C           1.4901   -2.3196    0.7412 C.ar    1  UNL11       0.0616
     10 C           2.3890   -2.6638    1.7287 C.ar    1  UNL11      -0.0476
     11 C           3.1396   -3.8085    1.6947 C.ar    1  UNL11      -0.0588
     12 C           3.0137   -4.6673    0.6483 C.ar    1  UNL11      -0.0316
     13 C           2.1241   -4.3700   -0.3723 C.ar    1  UNL11       0.1224
     14 N           2.0110   -5.2759   -1.4471 N.4     1  UNL11       0.0060
     15 O           1.7223   -4.8764   -2.5745 O.2     1  UNL11      -0.1300
     16 O           2.2245   -6.6032   -1.2277 O.2     1  UNL11      -0.3961
     17 C           1.3721   -3.1978   -0.3129 C.ar    1  UNL11      -0.0176
     18 C          -2.0292    0.0734    0.3473 C.ar    1  UNL11      -0.0161
     19 C          -3.3137    0.3581   -0.0687 C.ar    1  UNL11      -0.0441
     20 C          -4.3513    0.5344    0.9739 C.3     1  UNL11      -0.0393
     21 H          -4.9939    1.1314   -2.8994 H       1  UNL11       0.0278
     22 H          -5.4892    1.6462   -1.2782 H       1  UNL11       0.0278
     23 H          -5.7093   -0.0916   -1.8328 H       1  UNL11       0.0278
     24 H          -2.9265    0.4056   -3.3699 H       1  UNL11       0.0621
     25 H          -0.5764   -0.1128   -2.6753 H       1  UNL11       0.0654
     26 H           2.5100   -2.0001    2.5728 H       1  UNL11       0.0626
     27 H           3.8289   -4.0075    2.5170 H       1  UNL11       0.0618
     28 H           3.6169   -5.5656    0.6426 H       1  UNL11       0.0640
     29 H           0.6766   -2.9524   -1.0979 H       1  UNL11       0.0648
     30 H          -1.7629   -0.0234    1.4036 H       1  UNL11       0.0657
     31 H          -4.1007    1.3977    1.6457 H       1  UNL11       0.0278
     32 H          -5.3408    0.7582    0.5521 H       1  UNL11       0.0278
     33 H          -4.4567   -0.4052    1.5561 H       1  UNL11       0.0278
     34 H           2.4444   -6.9067   -0.3689 H       1  UNL11       0.3292
@<TRIPOS>BOND
     1     1     2    1
     2     1    21    1
     3     1    22    1
     4     1    23    1
     5     2     3   ar
     6     3     4   ar
     7     3    24    1
     8     4     5   ar
     9     4    25    1
    10     5     6    1
    11     5    18   ar
    12     6     7    1
    13     7     8    2
    14     7     9    1
    15     9    10   ar
    16    10    11   ar
    17    10    26    1
    18    11    12   ar
    19    11    27    1
    20    12    13   ar
    21    12    28    1
    22    13    14    1
    23    13    17   ar
    24    14    15    2
    25    14    16    1
    26    17     9   ar
    27    17    29    1
    28    18    19   ar
    29    18    30    1
    30    19    20    1
    31    19     2   ar
    32    20    31    1
    33    20    32    1
    34    20    33    1
    35    16    34    1
@<TRIPOS>MOLECULE
*****
 34 35 0 0 0
SMALL
GASTEIGER

@<TRIPOS>ATOM
      1 C          -5.0442    0.7888   -1.8386 C.3     1  UNL11      -0.0395
      2 C          -3.6611    0.4825   -1.3995 C.ar    1  UNL11      -0.0473
      3 C          -2.6489    0.3071   -2.3302 C.ar    1  UNL11      -0.0551
      4 C          -1.3655    0.0228   -1.9185 C.ar    1  UNL11      -0.0190
      5 C          -1.0315   -0.0992   -0.5774 C.ar    1  UNL11       0.1322
      6 O           0.2777   -0.3849   -0.2681 O.3     1  UNL11      -0.4223
      7 C           1.3744   -0.0266   -1.0017 C.2     1  UNL11       0.3445
      8 O           1.4505   -0.4352   -2.1884 O.2     1  UNL11      -0.2445
      9 C           2.4630    0.8004   -0.4949 C.ar    1  UNL11       0.0616
     10 C           2.2425    1.7655    0.4651 C.ar    1  UNL11      -0.0476
     11 C           3.2345    2.5637    0.9688 C.ar    1  UNL11      -0.0588
     12 C           4.5096    2.4204    0.5193 C.ar    1  UNL11      -0.0316
     13 C           4.7871    1.4649   -0.4458 C.ar    1  UNL11       0.1224
     14 N           6.1171    1.3350   -0.8965 N.4     1  UNL11       0.0060
     15 O           7.0055    2.0535   -0.4400 O.2     1  UNL11      -0.1300
     16 O           6.4130    0.4038   -1.8457 O.2     1  UNL11      -0.3961
     17 C           3.7585    0.6655   -0.9416 C.ar    1  UNL11      -0.0176
     18 C          -2.0292    0.0734    0.3473 C.ar    1  UNL11      -0.0161
     19 C          -3.3137    0.3581   -0.0687 C.ar    1  UNL11      -0.0441
     20 C          -4.3513    0.5344    0.9739 C.3     1  UNL11      -0.0393
     21 H          -4.9939    1.1314   -2.8994 H       1  UNL11       0.0278
     22 H          -5.4892    1.6462   -1.2782 H       1  UNL11       0.0278
     23 H          -5.7093   -0.0916   -1.8328 H       1  UNL11       0.0278
     24 H          -2.9265    0.4056   -3.3699 H       1  UNL11       0.0621
     25 H          -0.5764   -0.1128   -2.6753 H       1  UNL11       0.0654
     26 H           1.2387    1.9018    0.8412 H       1  UNL11       0.0626
     27 H           2.9764    3.3043    1.7275 H       1  UNL11       0.0618
     28 H           5.2771    3.0621    0.9315 H       1  UNL11       0.0640
     29 H           3.9577   -0.0814   -1.6917 H       1  UNL11       0.0648
     30 H          -1.7629   -0.0234    1.4036 H       1  UNL11       0.0657
     31 H          -4.1007    1.3977    1.6457 H       1  UNL11       0.0278
     32 H          -5.3408    0.7582    0.5521 H       1  UNL11       0.0278
     33 H          -4.4567   -0.4052    1.5561 H       1  UNL11       0.0278
     34 H           5.7359   -0.1429   -2.1928 H       1  UNL11       0.3292
@<TRIPOS>BOND
     1     1     2    1
     2     1    21    1
     3     1    22    1
     4     1    23    1
     5     2     3   ar
     6     3     4   ar
     7     3    24    1
     8     4     5   ar
     9     4    25    1
    10     5     6    1
    11     5    18   ar
    12     6     7    1
    13     7     8    2
    14     7     9    1
    15     9    10   ar
    16    10    11   ar
    17    10    26    1
    18    11    12   ar
    19    11    27    1
    20    12    13   ar
    21    12    28    1
    22    13    14    1
    23    13    17   ar
    24    14    15    2
    25    14    16    1
    26    17     9   ar
    27    17    29    1
    28    18    19   ar
    29    18    30    1
    30    19    20    1
    31    19     2   ar
    32    20    31    1
    33    20    32    1
    34    20    33    1
    35    16    34    1
@<TRIPOS>MOLECULE
*****
 34 35 0 0 0
SMALL
GASTEIGER

@<TRIPOS>ATOM
      1 C          -5.0442    0.7888   -1.8386 C.3     1  UNL11      -0.0395
      2 C          -3.6611    0.4825   -1.3995 C.ar    1  UNL11      -0.0473
      3 C          -2.6489    0.3071   -2.3302 C.ar    1  UNL11      -0.0551
      4 C          -1.3655    0.0228   -1.9185 C.ar    1  UNL11      -0.0190
      5 C          -1.0315   -0.0992   -0.5774 C.ar    1  UNL11       0.1322
      6 O           0.2777   -0.3849   -0.2681 O.3     1  UNL11      -0.4223
      7 C           1.1508   -1.0963   -1.0433 C.2     1  UNL11       0.3445
      8 O           1.4210   -0.6523   -2.1883 O.2     1  UNL11      -0.2445
      9 C           1.7896   -2.3388   -0.6264 C.ar    1  UNL11       0.0616
     10 C           1.1671   -3.2068    0.2458 C.ar    1  UNL11      -0.0476
     11 C           1.7298   -4.3832    0.6634 C.ar    1  UNL11      -0.0588
     12 C           2.9621   -4.7394    0.2127 C.ar    1  UNL11      -0.0316
     13 C           3.6327   -3.9031   -0.6661 C.ar    1  UNL11       0.1224
     14 N           4.9096   -4.2937   -1.1197 N.4     1  UNL11       0.0060
     15 O           5.5470   -3.5756   -1.8891 O.2     1  UNL11      -0.1300
     16 O           5.4351   -5.4777   -0.6984 O.2     1  UNL11      -0.3961
     17 C           3.0369   -2.7112   -1.0753 C.ar    1  UNL11      -0.0176
     18 C          -2.0292    0.0734    0.3473 C.ar    1  UNL11      -0.0161
     19 C          -3.3137    0.3581   -0.0687 C.ar    1  UNL11      -0.0441
     20 C          -4.3513    0.5344    0.9739 C.3     1  UNL11      -0.0393
     21 H          -4.9939    1.1314   -2.8994 H       1  UNL11       0.0278
     22 H          -5.4892    1.6462   -1.2782 H       1  UNL11       0.0278
     23 H          -5.7093   -0.0916   -1.8328 H       1  UNL11       0.0278
     24 H          -2.9265    0.4056   -3.3699 H       1  UNL11       0.0621
     25 H          -0.5764   -0.1128   -2.6753 H       1  UNL11       0.0654
     26 H           0.1867   -2.9498    0.6205 H       1  UNL11       0.0626
     27 H           1.1705   -5.0147    1.3557 H       1  UNL11       0.0618
     28 H           3.3870   -5.6733    0.5562 H       1  UNL11       0.0640
     29 H           3.5449   -2.0505   -1.7577 H       1  UNL11       0.0648
     30 H          -1.7629   -0.0234    1.4036 H       1  UNL11       0.0657
     31 H          -4.1007    1.3977    1.6457 H       1  UNL11       0.0278
     32 H          -5.3408    0.7582    0.5521 H       1  UNL11       0.0278
     33 H          -4.4567   -0.4052    1.5561 H       1  UNL11       0.0278
     34 H           4.9490   -6.0240   -0.1125 H       1  UNL11       0.3292
@<TRIPOS>BOND
     1     1     2    1
     2     1    21    1
     3     1    22    1
     4     1    23    1
     5     2     3   ar
     6     3     4   ar
     7     3    24    1
     8     4     5   ar
     9     4    25    1
    10     5     6    1
    11     5    18   ar
    12     6     7    1
    13     7     8    2
    14     7     9    1
    15     9    10   ar
    16    10    11   ar
    17    10    26    1
    18    11    12   ar
    19    11    27    1
    20    12    13   ar
    21    12    28    1
    22    13    14    1
    23    13    17   ar
    24    14    15    2
    25    14    16    1
    26    17     9   ar
    27    17    29    1
    28    18    19   ar
    29    18    30    1
    30    19    20    1
    31    19     2   ar
    32    20    31    1
    33    20    32    1
    34    20    33    1
    35    16    34    1
@<TRIPOS>MOLECULE
*****
 34 35 0 0 0
SMALL
GASTEIGER

@<TRIPOS>ATOM
      1 C          -5.0442    0.7888   -1.8386 C.3     1  UNL11      -0.0395
      2 C          -3.6611    0.4825   -1.3995 C.ar    1  UNL11      -0.0473
      3 C          -2.6489    0.3071   -2.3302 C.ar    1  UNL11      -0.0551
      4 C          -1.3655    0.0228   -1.9185 C.ar    1  UNL11      -0.0190
      5 C          -1.0315   -0.0992   -0.5774 C.ar    1  UNL11       0.1322
      6 O           0.2777   -0.3849   -0.2681 O.3     1  UNL11      -0.4223
      7 C           1.3744   -0.0266   -1.0017 C.2     1  UNL11       0.3445
      8 O           1.5879    1.1989   -1.1849 O.2     1  UNL11      -0.2445
      9 C           2.3136   -0.9764   -1.5861 C.ar    1  UNL11       0.0616
     10 C           2.5620   -2.1960   -0.9923 C.ar    1  UNL11      -0.0476
     11 C           3.4351   -3.1171   -1.5061 C.ar    1  UNL11      -0.0588
     12 C           4.1046   -2.8436   -2.6573 C.ar    1  UNL11      -0.0316
     13 C           3.8924   -1.6318   -3.2959 C.ar    1  UNL11       0.1224
     14 N           4.5983   -1.3706   -4.4885 N.4     1  UNL11       0.0060
     15 O           4.4519   -0.3023   -5.0811 O.2     1  UNL11      -0.1300
     16 O           5.4477   -2.3140   -4.9826 O.2     1  UNL11      -0.3961
     17 C           2.9980   -0.7118   -2.7513 C.ar    1  UNL11      -0.0176
     18 C          -2.0292    0.0734    0.3473 C.ar    1  UNL11      -0.0161
     19 C          -3.3137    0.3581   -0.0687 C.ar    1  UNL11      -0.0441
     20 C          -4.3513    0.5344    0.9739 C.3     1  UNL11      -0.0393
     21 H          -4.9939    1.1314   -2.8994 H       1  UNL11       0.0278
     22 H          -5.4892    1.6462   -1.2782 H       1  UNL11       0.0278
     23 H          -5.7093   -0.0916   -1.8328 H       1  UNL11       0.0278
     24 H          -2.9265    0.4056   -3.3699 H       1  UNL11       0.0621
     25 H          -0.5764   -0.1128   -2.6753 H       1  UNL11       0.0654
     26 H           2.0440   -2.4408   -0.0760 H       1  UNL11       0.0626
     27 H           3.5751   -4.0597   -0.9742 H       1  UNL11       0.0618
     28 H           4.7896   -3.5862   -3.0447 H       1  UNL11       0.0640
     29 H           2.8220    0.2342   -3.2353 H       1  UNL11       0.0648
     30 H          -1.7629   -0.0234    1.4036 H       1  UNL11       0.0657
     31 H          -4.1007    1.3977    1.6457 H       1  UNL11       0.0278
     32 H          -5.3408    0.7582    0.5521 H       1  UNL11       0.0278
     33 H          -4.4567   -0.4052    1.5561 H       1  UNL11       0.0278
     34 H           5.5586   -3.1273   -4.5307 H       1  UNL11       0.3292
@<TRIPOS>BOND
     1     1     2    1
     2     1    21    1
     3     1    22    1
     4     1    23    1
     5     2     3   ar
     6     3     4   ar
     7     3    24    1
     8     4     5   ar
     9     4    25    1
    10     5     6    1
    11     5    18   ar
    12     6     7    1
    13     7     8    2
    14     7     9    1
    15     9    10   ar
    16    10    11   ar
    17    10    26    1
    18    11    12   ar
    19    11    27    1
    20    12    13   ar
    21    12    28    1
    22    13    14    1
    23    13    17   ar
    24    14    15    2
    25    14    16    1
    26    17     9   ar
    27    17    29    1
    28    18    19   ar
    29    18    30    1
    30    19    20    1
    31    19     2   ar
    32    20    31    1
    33    20    32    1
    34    20    33    1
    35    16    34    1
@<TRIPOS>MOLECULE
*****
 34 35 0 0 0
SMALL
GASTEIGER

@<TRIPOS>ATOM
      1 C          -5.0442    0.7888   -1.8386 C.3     1  UNL11      -0.0395
      2 C          -3.6611    0.4825   -1.3995 C.ar    1  UNL11      -0.0473
      3 C          -2.6489    0.3071   -2.3302 C.ar    1  UNL11      -0.0551
      4 C          -1.3655    0.0228   -1.9185 C.ar    1  UNL11      -0.0190
      5 C          -1.0315   -0.0992   -0.5774 C.ar    1  UNL11       0.1322
      6 O           0.2777   -0.3849   -0.2681 O.3     1  UNL11      -0.4223
      7 C           1.2956   -0.5628   -1.1634 C.2     1  UNL11       0.3445
      8 O           1.1807   -1.4822   -2.0134 O.2     1  UNL11      -0.2445
      9 C           2.5077    0.2468   -1.1954 C.ar    1  UNL11       0.0616
     10 C           3.0245    0.8087   -0.0470 C.ar    1  UNL11      -0.0476
     11 C           4.1591    1.5751   -0.0313 C.ar    1  UNL11      -0.0588
     12 C           4.8305    1.8109   -1.1897 C.ar    1  UNL11      -0.0316
     13 C           4.3545    1.2698   -2.3738 C.ar    1  UNL11       0.1224
     14 N           5.0678    1.5282   -3.5626 N.4     1  UNL11       0.0060
     15 O           6.2842    1.7112   -3.5352 O.2     1  UNL11      -0.1300
     16 O           4.3975    1.5742   -4.7476 O.2     1  UNL11      -0.3961
     17 C           3.1970    0.4932   -2.3617 C.ar    1  UNL11      -0.0176
     18 C          -2.0292    0.0734    0.3473 C.ar    1  UNL11      -0.0161
     19 C          -3.3137    0.3581   -0.0687 C.ar    1  UNL11      -0.0441
     20 C          -4.3513    0.5344    0.9739 C.3     1  UNL11      -0.0393
     21 H          -4.9939    1.1314   -2.8994 H       1  UNL11       0.0278
     22 H          -5.4892    1.6462   -1.2782 H       1  UNL11       0.0278
     23 H          -5.7093   -0.0916   -1.8328 H       1  UNL11       0.0278
     24 H          -2.9265    0.4056   -3.3699 H       1  UNL11       0.0621
     25 H          -0.5764   -0.1128   -2.6753 H       1  UNL11       0.0654
     26 H           2.5119    0.6382    0.8888 H       1  UNL11       0.0626
     27 H           4.5022    1.9835    0.9208 H       1  UNL11       0.0618
     28 H           5.7244    2.4194   -1.1533 H       1  UNL11       0.0640
     29 H           2.8142    0.0657   -3.2732 H       1  UNL11       0.0648
     30 H          -1.7629   -0.0234    1.4036 H       1  UNL11       0.0657
     31 H          -4.1007    1.3977    1.6457 H       1  UNL11       0.0278
     32 H          -5.3408    0.7582    0.5521 H       1  UNL11       0.0278
     33 H          -4.4567   -0.4052    1.5561 H       1  UNL11       0.0278
     34 H           3.4711    1.4347   -4.7675 H       1  UNL11       0.3292
@<TRIPOS>BOND
     1     1     2    1
     2     1    21    1
     3     1    22    1
     4     1    23    1
     5     2     3   ar
     6     3     4   ar
     7     3    24    1
     8     4     5   ar
     9     4    25    1
    10     5     6    1
    11     5    18   ar
    12     6     7    1
    13     7     8    2
    14     7     9    1
    15     9    10   ar
    16    10    11   ar
    17    10    26    1
    18    11    12   ar
    19    11    27    1
    20    12    13   ar
    21    12    28    1
    22    13    14    1
    23    13    17   ar
    24    14    15    2
    25    14    16    1
    26    17     9   ar
    27    17    29    1
    28    18    19   ar
    29    18    30    1
    30    19    20    1
    31    19     2   ar
    32    20    31    1
    33    20    32    1
    34    20    33    1
    35    16    34    1
@<TRIPOS>MOLECULE
*****
 34 35 0 0 0
SMALL
GASTEIGER

@<TRIPOS>ATOM
      1 C          -5.0442    0.7888   -1.8386 C.3     1  UNL11      -0.0395
      2 C          -3.6611    0.4825   -1.3995 C.ar    1  UNL11      -0.0473
      3 C          -2.6489    0.3071   -2.3302 C.ar    1  UNL11      -0.0551
      4 C          -1.3655    0.0228   -1.9185 C.ar    1  UNL11      -0.0190
      5 C          -1.0315   -0.0992   -0.5774 C.ar    1  UNL11       0.1322
      6 O           0.2777   -0.3849   -0.2681 O.3     1  UNL11      -0.4223
      7 C           1.3744   -0.0266   -1.0017 C.2     1  UNL11       0.3445
      8 O           1.4505   -0.4352   -2.1884 O.2     1  UNL11      -0.2445
      9 C           2.4630    0.8004   -0.4949 C.ar    1  UNL11       0.0616
     10 C           2.2425    1.7655    0.4651 C.ar    1  UNL11      -0.0476
     11 C           3.2345    2.5637    0.9688 C.ar    1  UNL11      -0.0588
     12 C           4.5096    2.4204    0.5193 C.ar    1  UNL11      -0.0316
     13 C           4.7871    1.4649   -0.4458 C.ar    1  UNL11       0.1224
     14 N           6.1171    1.3350   -0.8965 N.4     1  UNL11       0.0060
     15 O           6.4065    0.5100   -1.7623 O.2     1  UNL11      -0.1300
     16 O           7.0841    2.1330   -0.3641 O.2     1  UNL11      -0.3961
     17 C           3.7585    0.6655   -0.9416 C.ar    1  UNL11      -0.0176
     18 C          -2.0292    0.0734    0.3473 C.ar    1  UNL11      -0.0161
     19 C          -3.3137    0.3581   -0.0687 C.ar    1  UNL11      -0.0441
     20 C          -4.3513    0.5344    0.9739 C.3     1  UNL11      -0.0393
     21 H          -4.9939    1.1314   -2.8994 H       1  UNL11       0.0278
     22 H          -5.4892    1.6462   -1.2782 H       1  UNL11       0.0278
     23 H          -5.7093   -0.0916   -1.8328 H       1  UNL11       0.0278
     24 H          -2.9265    0.4056   -3.3699 H       1  UNL11       0.0621
     25 H          -0.5764   -0.1128   -2.6753 H       1  UNL11       0.0654
     26 H           1.2387    1.9018    0.8412 H       1  UNL11       0.0626
     27 H           2.9764    3.3043    1.7275 H       1  UNL11       0.0618
     28 H           5.2771    3.0621    0.9315 H       1  UNL11       0.0640
     29 H           3.9577   -0.0814   -1.6917 H       1  UNL11       0.0648
     30 H          -1.7629   -0.0234    1.4036 H       1  UNL11       0.0657
     31 H          -4.1007    1.3977    1.6457 H       1  UNL11       0.0278
     32 H          -5.3408    0.7582    0.5521 H       1  UNL11       0.0278
     33 H          -4.4567   -0.4052    1.5561 H       1  UNL11       0.0278
     34 H           6.8629    2.7610    0.2952 H       1  UNL11       0.3292
@<TRIPOS>BOND
     1     1     2    1
     2     1    21    1
     3     1    22    1
     4     1    23    1
     5     2     3   ar
     6     3     4   ar
     7     3    24    1
     8     4     5   ar
     9     4    25    1
    10     5     6    1
    11     5    18   ar
    12     6     7    1
    13     7     8    2
    14     7     9    1
    15     9    10   ar
    16    10    11   ar
    17    10    26    1
    18    11    12   ar
    19    11    27    1
    20    12    13   ar
    21    12    28    1
    22    13    14    1
    23    13    17   ar
    24    14    15    2
    25    14    16    1
    26    17     9   ar
    27    17    29    1
    28    18    19   ar
    29    18    30    1
    30    19    20    1
    31    19     2   ar
    32    20    31    1
    33    20    32    1
    34    20    33    1
    35    16    34    1
@<TRIPOS>MOLECULE
*****
 34 35 0 0 0
SMALL
GASTEIGER

@<TRIPOS>ATOM
      1 C          -5.0442    0.7888   -1.8386 C.3     1  UNL11      -0.0395
      2 C          -3.6611    0.4825   -1.3995 C.ar    1  UNL11      -0.0473
      3 C          -2.6489    0.3071   -2.3302 C.ar    1  UNL11      -0.0551
      4 C          -1.3655    0.0228   -1.9185 C.ar    1  UNL11      -0.0190
      5 C          -1.0315   -0.0992   -0.5774 C.ar    1  UNL11       0.1322
      6 O           0.2777   -0.3849   -0.2681 O.3     1  UNL11      -0.4223
      7 C           1.3744   -0.0266   -1.0017 C.2     1  UNL11       0.3445
      8 O           1.3107    1.0287   -1.6823 O.2     1  UNL11      -0.2445
      9 C           2.6150   -0.7914   -1.0451 C.ar    1  UNL11       0.0616
     10 C           3.8298   -0.1746   -1.2579 C.ar    1  UNL11      -0.0476
     11 C           5.0180   -0.8534   -1.3062 C.ar    1  UNL11      -0.0588
     12 C           5.0318   -2.2026   -1.1395 C.ar    1  UNL11      -0.0316
     13 C           3.8383   -2.8732   -0.9225 C.ar    1  UNL11       0.1224
     14 N           3.8777   -4.2726   -0.7525 N.4     1  UNL11       0.0060
     15 O           2.9285   -4.9726   -1.1032 O.2     1  UNL11      -0.1300
     16 O           4.9795   -4.8473   -0.1945 O.2     1  UNL11      -0.3961
     17 C           2.6427   -2.1579   -0.8779 C.ar    1  UNL11      -0.0176
     18 C          -2.0292    0.0734    0.3473 C.ar    1  UNL11      -0.0161
     19 C          -3.3137    0.3581   -0.0687 C.ar    1  UNL11      -0.0441
     20 C          -4.3513    0.5344    0.9739 C.3     1  UNL11      -0.0393
     21 H          -4.9939    1.1314   -2.8994 H       1  UNL11       0.0278
     22 H          -5.4892    1.6462   -1.2782 H       1  UNL11       0.0278
     23 H          -5.7093   -0.0916   -1.8328 H       1  UNL11       0.0278
     24 H          -2.9265    0.4056   -3.3699 H       1  UNL11       0.0621
     25 H          -0.5764   -0.1128   -2.6753 H       1  UNL11       0.0654
     26 H           3.8496    0.8973   -1.3936 H       1  UNL11       0.0626
     27 H           5.9365   -0.2900   -1.4791 H       1  UNL11       0.0618
     28 H           5.9822   -2.7180   -1.1817 H       1  UNL11       0.0640
     29 H           1.7069   -2.6642   -0.7102 H       1  UNL11       0.0648
     30 H          -1.7629   -0.0234    1.4036 H       1  UNL11       0.0657
     31 H          -4.1007    1.3977    1.6457 H       1  UNL11       0.0278
     32 H          -5.3408    0.7582    0.5521 H       1  UNL11       0.0278
     33 H          -4.4567   -0.4052    1.5561 H       1  UNL11       0.0278
     34 H           5.7020   -4.3135    0.0723 H       1  UNL11       0.3292
@<TRIPOS>BOND
     1     1     2    1
     2     1    21    1
     3     1    22    1
     4     1    23    1
     5     2     3   ar
     6     3     4   ar
     7     3    24    1
     8     4     5   ar
     9     4    25    1
    10     5     6    1
    11     5    18   ar
    12     6     7    1
    13     7     8    2
    14     7     9    1
    15     9    10   ar
    16    10    11   ar
    17    10    26    1
    18    11    12   ar
    19    11    27    1
    20    12    13   ar
    21    12    28    1
    22    13    14    1
    23    13    17   ar
    24    14    15    2
    25    14    16    1
    26    17     9   ar
    27    17    29    1
    28    18    19   ar
    29    18    30    1
    30    19    20    1
    31    19     2   ar
    32    20    31    1
    33    20    32    1
    34    20    33    1
    35    16    34    1
@<TRIPOS>MOLECULE
*****
 34 35 0 0 0
SMALL
GASTEIGER

@<TRIPOS>ATOM
      1 C          -5.0442    0.7888   -1.8386 C.3     1  UNL11      -0.0395
      2 C          -3.6611    0.4825   -1.3995 C.ar    1  UNL11      -0.0473
      3 C          -2.6489    0.3071   -2.3302 C.ar    1  UNL11      -0.0551
      4 C          -1.3655    0.0228   -1.9185 C.ar    1  UNL11      -0.0190
      5 C          -1.0315   -0.0992   -0.5774 C.ar    1  UNL11       0.1322
      6 O           0.2777   -0.3849   -0.2681 O.3     1  UNL11      -0.4223
      7 C           0.7121   -1.0891    0.8204 C.2     1  UNL11       0.3445
      8 O          -0.0473   -1.9723    1.2940 O.2     1  UNL11      -0.2445
      9 C           2.0017   -0.8810    1.4678 C.ar    1  UNL11       0.0616
     10 C           2.1732   -1.1169    2.8156 C.ar    1  UNL11      -0.0476
     11 C           3.3654   -0.9348    3.4638 C.ar    1  UNL11      -0.0588
     12 C           4.4513   -0.5008    2.7704 C.ar    1  UNL11      -0.0316
     13 C           4.3346   -0.2481    1.4125 C.ar    1  UNL11       0.1224
     14 N           5.4746    0.2014    0.7145 N.4     1  UNL11       0.0060
     15 O           5.6285   -0.0730   -0.4750 O.2     1  UNL11      -0.1300
     16 O           6.4091    0.9451    1.3695 O.2     1  UNL11      -0.3961
     17 C           3.1090   -0.4418    0.7771 C.ar    1  UNL11      -0.0176
     18 C          -2.0292    0.0734    0.3473 C.ar    1  UNL11      -0.0161
     19 C          -3.3137    0.3581   -0.0687 C.ar    1  UNL11      -0.0441
     20 C          -4.3513    0.5344    0.9739 C.3     1  UNL11      -0.0393
     21 H          -4.9939    1.1314   -2.8994 H       1  UNL11       0.0278
     22 H          -5.4892    1.6462   -1.2782 H       1  UNL11       0.0278
     23 H          -5.7093   -0.0916   -1.8328 H       1  UNL11       0.0278
     24 H          -2.9265    0.4056   -3.3699 H       1  UNL11       0.0621
     25 H          -0.5764   -0.1128   -2.6753 H       1  UNL11       0.0654
     26 H           1.3273   -1.4628    3.3924 H       1  UNL11       0.0626
     27 H           3.4175   -1.1445    4.5335 H       1  UNL11       0.0618
     28 H           5.3830   -0.3639    3.3033 H       1  UNL11       0.0640
     29 H           3.0019   -0.2499   -0.2773 H       1  UNL11       0.0648
     30 H          -1.7629   -0.0234    1.4036 H       1  UNL11       0.0657
     31 H          -4.1007    1.3977    1.6457 H       1  UNL11       0.0278
     32 H          -5.3408    0.7582    0.5521 H       1  UNL11       0.0278
     33 H          -4.4567   -0.4052    1.5561 H       1  UNL11       0.0278
     34 H           6.2911    1.1535    2.2754 H       1  UNL11       0.3292
@<TRIPOS>BOND
     1     1     2    1
     2     1    21    1
     3     1    22    1
     4     1    23    1
     5     2     3   ar
     6     3     4   ar
     7     3    24    1
     8     4     5   ar
     9     4    25    1
    10     5     6    1
    11     5    18   ar
    12     6     7    1
    13     7     8    2
    14     7     9    1
    15     9    10   ar
    16    10    11   ar
    17    10    26    1
    18    11    12   ar
    19    11    27    1
    20    12    13   ar
    21    12    28    1
    22    13    14    1
    23    13    17   ar
    24    14    15    2
    25    14    16    1
    26    17     9   ar
    27    17    29    1
    28    18    19   ar
    29    18    30    1
    30    19    20    1
    31    19     2   ar
    32    20    31    1
    33    20    32    1
    34    20    33    1
    35    16    34    1
@<TRIPOS>MOLECULE
*****
 34 35 0 0 0
SMALL
GASTEIGER

@<TRIPOS>ATOM
      1 C          -5.0442    0.7888   -1.8386 C.3     1  UNL11      -0.0395
      2 C          -3.6611    0.4825   -1.3995 C.ar    1  UNL11      -0.0473
      3 C          -2.6489    0.3071   -2.3302 C.ar    1  UNL11      -0.0551
      4 C          -1.3655    0.0228   -1.9185 C.ar    1  UNL11      -0.0190
      5 C          -1.0315   -0.0992   -0.5774 C.ar    1  UNL11       0.1322
      6 O           0.2777   -0.3849   -0.2681 O.3     1  UNL11      -0.4223
      7 C           1.1508   -1.0963   -1.0433 C.2     1  UNL11       0.3445
      8 O           0.7366   -1.5400   -2.1444 O.2     1  UNL11      -0.2445
      9 C           2.5337   -1.3735   -0.6740 C.ar    1  UNL11       0.0616
     10 C           2.9106   -1.5033    0.6461 C.ar    1  UNL11      -0.0476
     11 C           4.1967   -1.7632    1.0375 C.ar    1  UNL11      -0.0588
     12 C           5.1717   -1.9054    0.1007 C.ar    1  UNL11      -0.0316
     13 C           4.8477   -1.7846   -1.2416 C.ar    1  UNL11       0.1224
     14 N           5.8759   -1.9360   -2.1949 N.4     1  UNL11       0.0060
     15 O           6.8411   -2.6633   -1.9640 O.2     1  UNL11      -0.1300
     16 O           5.7929   -1.2681   -3.3791 O.2     1  UNL11      -0.3961
     17 C           3.5305   -1.5197   -1.6128 C.ar    1  UNL11      -0.0176
     18 C          -2.0292    0.0734    0.3473 C.ar    1  UNL11      -0.0161
     19 C          -3.3137    0.3581   -0.0687 C.ar    1  UNL11      -0.0441
     20 C          -4.3513    0.5344    0.9739 C.3     1  UNL11      -0.0393
     21 H          -4.9939    1.1314   -2.8994 H       1  UNL11       0.0278
     22 H          -5.4892    1.6462   -1.2782 H       1  UNL11       0.0278
     23 H          -5.7093   -0.0916   -1.8328 H       1  UNL11       0.0278
     24 H          -2.9265    0.4056   -3.3699 H       1  UNL11       0.0621
     25 H          -0.5764   -0.1128   -2.6753 H       1  UNL11       0.0654
     26 H           2.1567   -1.3953    1.4127 H       1  UNL11       0.0626
     27 H           4.4121   -1.8513    2.1037 H       1  UNL11       0.0618
     28 H           6.1807   -2.1104    0.4332 H       1  UNL11       0.0640
     29 H           3.2626   -1.4229   -2.6515 H       1  UNL11       0.0648
     30 H          -1.7629   -0.0234    1.4036 H       1  UNL11       0.0657
     31 H          -4.1007    1.3977    1.6457 H       1  UNL11       0.0278
     32 H          -5.3408    0.7582    0.5521 H       1  UNL11       0.0278
     33 H          -4.4567   -0.4052    1.5561 H       1  UNL11       0.0278
     34 H           5.0576   -0.7144   -3.5542 H       1  UNL11       0.3292
@<TRIPOS>BOND
     1     1     2    1
     2     1    21    1
     3     1    22    1
     4     1    23    1
     5     2     3   ar
     6     3     4   ar
     7     3    24    1
     8     4     5   ar
     9     4    25    1
    10     5     6    1
    11     5    18   ar
    12     6     7    1
    13     7     8    2
    14     7     9    1
    15     9    10   ar
    16    10    11   ar
    17    10    26    1
    18    11    12   ar
    19    11    27    1
    20    12    13   ar
    21    12    28    1
    22    13    14    1
    23    13    17   ar
    24    14    15    2
    25    14    16    1
    26    17     9   ar
    27    17    29    1
    28    18    19   ar
    29    18    30    1
    30    19    20    1
    31    19     2   ar
    32    20    31    1
    33    20    32    1
    34    20    33    1
    35    16    34    1
@<TRIPOS>MOLECULE
*****
 34 35 0 0 0
SMALL
GASTEIGER

@<TRIPOS>ATOM
      1 C          -5.0442    0.7888   -1.8386 C.3     1  UNL11      -0.0395
      2 C          -3.6611    0.4825   -1.3995 C.ar    1  UNL11      -0.0473
      3 C          -2.6489    0.3071   -2.3302 C.ar    1  UNL11      -0.0551
      4 C          -1.3655    0.0228   -1.9185 C.ar    1  UNL11      -0.0190
      5 C          -1.0315   -0.0992   -0.5774 C.ar    1  UNL11       0.1322
      6 O           0.2777   -0.3849   -0.2681 O.3     1  UNL11      -0.4223
      7 C           0.7121   -1.0891    0.8204 C.2     1  UNL11       0.3445
      8 O           0.3253   -2.2788    0.9470 O.2     1  UNL11      -0.2445
      9 C           1.5965   -0.5477    1.8452 C.ar    1  UNL11       0.0616
     10 C           2.4651   -1.3595    2.5438 C.ar    1  UNL11      -0.0476
     11 C           3.3123   -0.8936    3.5134 C.ar    1  UNL11      -0.0588
     12 C           3.3198    0.4299    3.8242 C.ar    1  UNL11      -0.0316
     13 C           2.4663    1.2910    3.1523 C.ar    1  UNL11       0.1224
     14 N           2.4920    2.6595    3.4920 N.4     1  UNL11       0.0060
     15 O           1.7416    3.4575    2.9315 O.2     1  UNL11      -0.1300
     16 O           3.3577    3.0942    4.4496 O.2     1  UNL11      -0.3961
     17 C           1.6139    0.7905    2.1694 C.ar    1  UNL11      -0.0176
     18 C          -2.0292    0.0734    0.3473 C.ar    1  UNL11      -0.0161
     19 C          -3.3137    0.3581   -0.0687 C.ar    1  UNL11      -0.0441
     20 C          -4.3513    0.5344    0.9739 C.3     1  UNL11      -0.0393
     21 H          -4.9939    1.1314   -2.8994 H       1  UNL11       0.0278
     22 H          -5.4892    1.6462   -1.2782 H       1  UNL11       0.0278
     23 H          -5.7093   -0.0916   -1.8328 H       1  UNL11       0.0278
     24 H          -2.9265    0.4056   -3.3699 H       1  UNL11       0.0621
     25 H          -0.5764   -0.1128   -2.6753 H       1  UNL11       0.0654
     26 H           2.4812   -2.4161    2.3180 H       1  UNL11       0.0626
     27 H           3.9692   -1.6028    4.0199 H       1  UNL11       0.0618
     28 H           3.9975    0.7754    4.5937 H       1  UNL11       0.0640
     29 H           0.9448    1.4465    1.6383 H       1  UNL11       0.0648
     30 H          -1.7629   -0.0234    1.4036 H       1  UNL11       0.0657
     31 H          -4.1007    1.3977    1.6457 H       1  UNL11       0.0278
     32 H          -5.3408    0.7582    0.5521 H       1  UNL11       0.0278
     33 H          -4.4567   -0.4052    1.5561 H       1  UNL11       0.0278
     34 H           3.9287    2.4859    4.8760 H       1  UNL11       0.3292
@<TRIPOS>BOND
     1     1     2    1
     2     1    21    1
     3     1    22    1
     4     1    23    1
     5     2     3   ar
     6     3     4   ar
     7     3    24    1
     8     4     5   ar
     9     4    25    1
    10     5     6    1
    11     5    18   ar
    12     6     7    1
    13     7     8    2
    14     7     9    1
    15     9    10   ar
    16    10    11   ar
    17    10    26    1
    18    11    12   ar
    19    11    27    1
    20    12    13   ar
    21    12    28    1
    22    13    14    1
    23    13    17   ar
    24    14    15    2
    25    14    16    1
    26    17     9   ar
    27    17    29    1
    28    18    19   ar
    29    18    30    1
    30    19    20    1
    31    19     2   ar
    32    20    31    1
    33    20    32    1
    34    20    33    1
    35    16    34    1
@<TRIPOS>MOLECULE
*****
 34 35 0 0 0
SMALL
GASTEIGER

@<TRIPOS>ATOM
      1 C          -5.0442    0.7888   -1.8386 C.3     1  UNL11      -0.0395
      2 C          -3.6611    0.4825   -1.3995 C.ar    1  UNL11      -0.0473
      3 C          -2.6489    0.3071   -2.3302 C.ar    1  UNL11      -0.0551
      4 C          -1.3655    0.0228   -1.9185 C.ar    1  UNL11      -0.0190
      5 C          -1.0315   -0.0992   -0.5774 C.ar    1  UNL11       0.1322
      6 O           0.2777   -0.3849   -0.2681 O.3     1  UNL11      -0.4223
      7 C           0.7121   -1.0891    0.8204 C.2     1  UNL11       0.3445
      8 O          -0.0473   -1.9723    1.2940 O.2     1  UNL11      -0.2445
      9 C           2.0017   -0.8810    1.4678 C.ar    1  UNL11       0.0616
     10 C           2.6549   -1.9110    2.1113 C.ar    1  UNL11      -0.0476
     11 C           3.8662   -1.7601    2.7318 C.ar    1  UNL11      -0.0588
     12 C           4.4791   -0.5465    2.7298 C.ar    1  UNL11      -0.0316
     13 C           3.8662    0.5238    2.0972 C.ar    1  UNL11       0.1224
     14 N           4.5211    1.7727    2.1085 N.4     1  UNL11       0.0060
     15 O           4.3717    2.5659    1.1798 O.2     1  UNL11      -0.1300
     16 O           5.3244    2.0966    3.1598 O.2     1  UNL11      -0.3961
     17 C           2.6330    0.3428    1.4731 C.ar    1  UNL11      -0.0176
     18 C          -2.0292    0.0734    0.3473 C.ar    1  UNL11      -0.0161
     19 C          -3.3137    0.3581   -0.0687 C.ar    1  UNL11      -0.0441
     20 C          -4.3513    0.5344    0.9739 C.3     1  UNL11      -0.0393
     21 H          -4.9939    1.1314   -2.8994 H       1  UNL11       0.0278
     22 H          -5.4892    1.6462   -1.2782 H       1  UNL11       0.0278
     23 H          -5.7093   -0.0916   -1.8328 H       1  UNL11       0.0278
     24 H          -2.9265    0.4056   -3.3699 H       1  UNL11       0.0621
     25 H          -0.5764   -0.1128   -2.6753 H       1  UNL11       0.0654
     26 H           2.1916   -2.8870    2.1289 H       1  UNL11       0.0626
     27 H           4.3167   -2.6265    3.2189 H       1  UNL11       0.0618
     28 H           5.4356   -0.4508    3.2264 H       1  UNL11       0.0640
     29 H           2.1437    1.1643    0.9773 H       1  UNL11       0.0648
     30 H          -1.7629   -0.0234    1.4036 H       1  UNL11       0.0657
     31 H          -4.1007    1.3977    1.6457 H       1  UNL11       0.0278
     32 H          -5.3408    0.7582    0.5521 H       1  UNL11       0.0278
     33 H          -4.4567   -0.4052    1.5561 H       1  UNL11       0.0278
     34 H           5.4376    1.4920    3.8666 H       1  UNL11       0.3292
@<TRIPOS>BOND
     1     1     2    1
     2     1    21    1
     3     1    22    1
     4     1    23    1
     5     2     3   ar
     6     3     4   ar
     7     3    24    1
     8     4     5   ar
     9     4    25    1
    10     5     6    1
    11     5    18   ar
    12     6     7    1
    13     7     8    2
    14     7     9    1
    15     9    10   ar
    16    10    11   ar
    17    10    26    1
    18    11    12   ar
    19    11    27    1
    20    12    13   ar
    21    12    28    1
    22    13    14    1
    23    13    17   ar
    24    14    15    2
    25    14    16    1
    26    17     9   ar
    27    17    29    1
    28    18    19   ar
    29    18    30    1
    30    19    20    1
    31    19     2   ar
    32    20    31    1
    33    20    32    1
    34    20    33    1
    35    16    34    1
@<TRIPOS>MOLECULE
*****
 34 35 0 0 0
SMALL
GASTEIGER

@<TRIPOS>ATOM
      1 C          -5.0442    0.7888   -1.8386 C.3     1  UNL11      -0.0395
      2 C          -3.6611    0.4825   -1.3995 C.ar    1  UNL11      -0.0473
      3 C          -2.6489    0.3071   -2.3302 C.ar    1  UNL11      -0.0551
      4 C          -1.3655    0.0228   -1.9185 C.ar    1  UNL11      -0.0190
      5 C          -1.0315   -0.0992   -0.5774 C.ar    1  UNL11       0.1322
      6 O           0.2777   -0.3849   -0.2681 O.3     1  UNL11      -0.4223
      7 C           1.3744   -0.0266   -1.0017 C.2     1  UNL11       0.3445
      8 O           1.5879    1.1989   -1.1849 O.2     1  UNL11      -0.2445
      9 C           2.3136   -0.9764   -1.5861 C.ar    1  UNL11       0.0616
     10 C           3.6400   -0.6494   -1.7735 C.ar    1  UNL11      -0.0476
     11 C           4.5556   -1.5097   -2.3181 C.ar    1  UNL11      -0.0588
     12 C           4.1668   -2.7545   -2.7023 C.ar    1  UNL11      -0.0316
     13 C           2.8443   -3.1353   -2.5364 C.ar    1  UNL11       0.1224
     14 N           2.4647   -4.4314   -2.9425 N.4     1  UNL11       0.0060
     15 O           3.2912   -5.2016   -3.4300 O.2     1  UNL11      -0.1300
     16 O           1.1701   -4.8269   -2.7906 O.2     1  UNL11      -0.3961
     17 C           1.9328   -2.2399   -1.9793 C.ar    1  UNL11      -0.0176
     18 C          -2.0292    0.0734    0.3473 C.ar    1  UNL11      -0.0161
     19 C          -3.3137    0.3581   -0.0687 C.ar    1  UNL11      -0.0441
     20 C          -4.3513    0.5344    0.9739 C.3     1  UNL11      -0.0393
     21 H          -4.9939    1.1314   -2.8994 H       1  UNL11       0.0278
     22 H          -5.4892    1.6462   -1.2782 H       1  UNL11       0.0278
     23 H          -5.7093   -0.0916   -1.8328 H       1  UNL11       0.0278
     24 H          -2.9265    0.4056   -3.3699 H       1  UNL11       0.0621
     25 H          -0.5764   -0.1128   -2.6753 H       1  UNL11       0.0654
     26 H           3.9778    0.3334   -1.4773 H       1  UNL11       0.0626
     27 H           5.5873   -1.1730   -2.4324 H       1  UNL11       0.0618
     28 H           4.9073   -3.4172   -3.1302 H       1  UNL11       0.0640
     29 H           0.9017   -2.5206   -1.8438 H       1  UNL11       0.0648
     30 H          -1.7629   -0.0234    1.4036 H       1  UNL11       0.0657
     31 H          -4.1007    1.3977    1.6457 H       1  UNL11       0.0278
     32 H          -5.3408    0.7582    0.5521 H       1  UNL11       0.0278
     33 H          -4.4567   -0.4052    1.5561 H       1  UNL11       0.0278
     34 H           0.5413   -4.2398   -2.4192 H       1  UNL11       0.3292
@<TRIPOS>BOND
     1     1     2    1
     2     1    21    1
     3     1    22    1
     4     1    23    1
     5     2     3   ar
     6     3     4   ar
     7     3    24    1
     8     4     5   ar
     9     4    25    1
    10     5     6    1
    11     5    18   ar
    12     6     7    1
    13     7     8    2
    14     7     9    1
    15     9    10   ar
    16    10    11   ar
    17    10    26    1
    18    11    12   ar
    19    11    27    1
    20    12    13   ar
    21    12    28    1
    22    13    14    1
    23    13    17   ar
    24    14    15    2
    25    14    16    1
    26    17     9   ar
    27    17    29    1
    28    18    19   ar
    29    18    30    1
    30    19    20    1
    31    19     2   ar
    32    20    31    1
    33    20    32    1
    34    20    33    1
    35    16    34    1
@<TRIPOS>MOLECULE
*****
 34 35 0 0 0
SMALL
GASTEIGER

@<TRIPOS>ATOM
      1 C          -5.0442    0.7888   -1.8386 C.3     1  UNL11      -0.0395
      2 C          -3.6611    0.4825   -1.3995 C.ar    1  UNL11      -0.0473
      3 C          -2.6489    0.3071   -2.3302 C.ar    1  UNL11      -0.0551
      4 C          -1.3655    0.0228   -1.9185 C.ar    1  UNL11      -0.0190
      5 C          -1.0315   -0.0992   -0.5774 C.ar    1  UNL11       0.1322
      6 O           0.2777   -0.3849   -0.2681 O.3     1  UNL11      -0.4223
      7 C           1.1508   -1.0963   -1.0433 C.2     1  UNL11       0.3445
      8 O           1.4210   -0.6523   -2.1883 O.2     1  UNL11      -0.2445
      9 C           1.7896   -2.3388   -0.6264 C.ar    1  UNL11       0.0616
     10 C           2.1430   -3.3057   -1.5438 C.ar    1  UNL11      -0.0476
     11 C           2.7440   -4.4860   -1.1966 C.ar    1  UNL11      -0.0588
     12 C           3.0183   -4.7451    0.1096 C.ar    1  UNL11      -0.0316
     13 C           2.6840   -3.8070    1.0737 C.ar    1  UNL11       0.1224
     14 N           2.9783   -4.0981    2.4218 N.4     1  UNL11       0.0060
     15 O           2.6862   -3.3007    3.3123 O.2     1  UNL11      -0.1300
     16 O           3.5913   -5.2740    2.7332 O.2     1  UNL11      -0.3961
     17 C           2.0727   -2.6135    0.6929 C.ar    1  UNL11      -0.0176
     18 C          -2.0292    0.0734    0.3473 C.ar    1  UNL11      -0.0161
     19 C          -3.3137    0.3581   -0.0687 C.ar    1  UNL11      -0.0441
     20 C          -4.3513    0.5344    0.9739 C.3     1  UNL11      -0.0393
     21 H          -4.9939    1.1314   -2.8994 H       1  UNL11       0.0278
     22 H          -5.4892    1.6462   -1.2782 H       1  UNL11       0.0278
     23 H          -5.7093   -0.0916   -1.8328 H       1  UNL11       0.0278
     24 H          -2.9265    0.4056   -3.3699 H       1  UNL11       0.0621
     25 H          -0.5764   -0.1128   -2.6753 H       1  UNL11       0.0654
     26 H           1.9372   -3.1272   -2.5895 H       1  UNL11       0.0626
     27 H           2.9919   -5.1993   -1.9844 H       1  UNL11       0.0618
     28 H           3.4935   -5.6842    0.3606 H       1  UNL11       0.0640
     29 H           1.8067   -1.8744    1.4299 H       1  UNL11       0.0648
     30 H          -1.7629   -0.0234    1.4036 H       1  UNL11       0.0657
     31 H          -4.1007    1.3977    1.6457 H       1  UNL11       0.0278
     32 H          -5.3408    0.7582    0.5521 H       1  UNL11       0.0278
     33 H          -4.4567   -0.4052    1.5561 H       1  UNL11       0.0278
     34 H           3.8134   -5.8806    2.0545 H       1  UNL11       0.3292
@<TRIPOS>BOND
     1     1     2    1
     2     1    21    1
     3     1    22    1
     4     1    23    1
     5     2     3   ar
     6     3     4   ar
     7     3    24    1
     8     4     5   ar
     9     4    25    1
    10     5     6    1
    11     5    18   ar
    12     6     7    1
    13     7     8    2
    14     7     9    1
    15     9    10   ar
    16    10    11   ar
    17    10    26    1
    18    11    12   ar
    19    11    27    1
    20    12    13   ar
    21    12    28    1
    22    13    14    1
    23    13    17   ar
    24    14    15    2
    25    14    16    1
    26    17     9   ar
    27    17    29    1
    28    18    19   ar
    29    18    30    1
    30    19    20    1
    31    19     2   ar
    32    20    31    1
    33    20    32    1
    34    20    33    1
    35    16    34    1
@<TRIPOS>MOLECULE
*****
 34 35 0 0 0
SMALL
GASTEIGER

@<TRIPOS>ATOM
      1 C          -5.0442    0.7888   -1.8386 C.3     1  UNL11      -0.0395
      2 C          -3.6611    0.4825   -1.3995 C.ar    1  UNL11      -0.0473
      3 C          -2.6489    0.3071   -2.3302 C.ar    1  UNL11      -0.0551
      4 C          -1.3655    0.0228   -1.9185 C.ar    1  UNL11      -0.0190
      5 C          -1.0315   -0.0992   -0.5774 C.ar    1  UNL11       0.1322
      6 O           0.2777   -0.3849   -0.2681 O.3     1  UNL11      -0.4223
      7 C           1.3744   -0.0266   -1.0017 C.2     1  UNL11       0.3445
      8 O           1.1892    0.6239   -2.0617 O.2     1  UNL11      -0.2445
      9 C           2.7471   -0.3511   -0.6326 C.ar    1  UNL11       0.0616
     10 C           3.7228   -0.5321   -1.5901 C.ar    1  UNL11      -0.0476
     11 C           5.0230   -0.8377   -1.2885 C.ar    1  UNL11      -0.0588
     12 C           5.4001   -0.9756    0.0104 C.ar    1  UNL11      -0.0316
     13 C           4.4589   -0.8043    1.0136 C.ar    1  UNL11       0.1224
     14 N           4.8737   -0.9524    2.3533 N.4     1  UNL11       0.0060
     15 O           4.3240   -0.3171    3.2523 O.2     1  UNL11      -0.1300
     16 O           5.8922   -1.8079    2.6468 O.2     1  UNL11      -0.3961
     17 C           3.1419   -0.4936    0.6788 C.ar    1  UNL11      -0.0176
     18 C          -2.0292    0.0734    0.3473 C.ar    1  UNL11      -0.0161
     19 C          -3.3137    0.3581   -0.0687 C.ar    1  UNL11      -0.0441
     20 C          -4.3513    0.5344    0.9739 C.3     1  UNL11      -0.0393
     21 H          -4.9939    1.1314   -2.8994 H       1  UNL11       0.0278
     22 H          -5.4892    1.6462   -1.2782 H       1  UNL11       0.0278
     23 H          -5.7093   -0.0916   -1.8328 H       1  UNL11       0.0278
     24 H          -2.9265    0.4056   -3.3699 H       1  UNL11       0.0621
     25 H          -0.5764   -0.1128   -2.6753 H       1  UNL11       0.0654
     26 H           3.4521   -0.4286   -2.6312 H       1  UNL11       0.0626
     27 H           5.7344   -0.9648   -2.1062 H       1  UNL11       0.0618
     28 H           6.4326   -1.2173    0.2250 H       1  UNL11       0.0640
     29 H           2.3988   -0.3573    1.4465 H       1  UNL11       0.0648
     30 H          -1.7629   -0.0234    1.4036 H       1  UNL11       0.0657
     31 H          -4.1007    1.3977    1.6457 H       1  UNL11       0.0278
     32 H          -5.3408    0.7582    0.5521 H       1  UNL11       0.0278
     33 H          -4.4567   -0.4052    1.5561 H       1  UNL11       0.0278
     34 H           6.3102   -2.2913    1.9616 H       1  UNL11       0.3292
@<TRIPOS>BOND
     1     1     2    1
     2     1    21    1
     3     1    22    1
     4     1    23    1
     5     2     3   ar
     6     3     4   ar
     7     3    24    1
     8     4     5   ar
     9     4    25    1
    10     5     6    1
    11     5    18   ar
    12     6     7    1
    13     7     8    2
    14     7     9    1
    15     9    10   ar
    16    10    11   ar
    17    10    26    1
    18    11    12   ar
    19    11    27    1
    20    12    13   ar
    21    12    28    1
    22    13    14    1
    23    13    17   ar
    24    14    15    2
    25    14    16    1
    26    17     9   ar
    27    17    29    1
    28    18    19   ar
    29    18    30    1
    30    19    20    1
    31    19     2   ar
    32    20    31    1
    33    20    32    1
    34    20    33    1
    35    16    34    1
@<TRIPOS>MOLECULE
*****
 34 35 0 0 0
SMALL
GASTEIGER

@<TRIPOS>ATOM
      1 C          -5.0442    0.7888   -1.8386 C.3     1  UNL11      -0.0395
      2 C          -3.6611    0.4825   -1.3995 C.ar    1  UNL11      -0.0473
      3 C          -2.6489    0.3071   -2.3302 C.ar    1  UNL11      -0.0551
      4 C          -1.3655    0.0228   -1.9185 C.ar    1  UNL11      -0.0190
      5 C          -1.0315   -0.0992   -0.5774 C.ar    1  UNL11       0.1322
      6 O           0.2777   -0.3849   -0.2681 O.3     1  UNL11      -0.4223
      7 C           1.2956   -0.5628   -1.1634 C.2     1  UNL11       0.3445
      8 O           1.0102   -1.0217   -2.2988 O.2     1  UNL11      -0.2445
      9 C           2.6930   -0.2539   -0.8851 C.ar    1  UNL11       0.0616
     10 C           3.7157   -0.9531   -1.4908 C.ar    1  UNL11      -0.0476
     11 C           5.0406   -0.6967   -1.2588 C.ar    1  UNL11      -0.0588
     12 C           5.3957    0.2901   -0.3936 C.ar    1  UNL11      -0.0316
     13 C           4.4073    1.0245    0.2430 C.ar    1  UNL11       0.1224
     14 N           4.8000    2.0428    1.1361 N.4     1  UNL11       0.0060
     15 O           5.8601    2.6452    0.9712 O.2     1  UNL11      -0.1300
     16 O           3.9935    2.3567    2.1880 O.2     1  UNL11      -0.3961
     17 C           3.0660    0.7427   -0.0112 C.ar    1  UNL11      -0.0176
     18 C          -2.0292    0.0734    0.3473 C.ar    1  UNL11      -0.0161
     19 C          -3.3137    0.3581   -0.0687 C.ar    1  UNL11      -0.0441
     20 C          -4.3513    0.5344    0.9739 C.3     1  UNL11      -0.0393
     21 H          -4.9939    1.1314   -2.8994 H       1  UNL11       0.0278
     22 H          -5.4892    1.6462   -1.2782 H       1  UNL11       0.0278
     23 H          -5.7093   -0.0916   -1.8328 H       1  UNL11       0.0278
     24 H          -2.9265    0.4056   -3.3699 H       1  UNL11       0.0621
     25 H          -0.5764   -0.1128   -2.6753 H       1  UNL11       0.0654
     26 H           3.4635   -1.7433   -2.1834 H       1  UNL11       0.0626
     27 H           5.7892   -1.2965   -1.7791 H       1  UNL11       0.0618
     28 H           6.4484    0.4750   -0.2257 H       1  UNL11       0.0640
     29 H           2.2862    1.3042    0.4754 H       1  UNL11       0.0648
     30 H          -1.7629   -0.0234    1.4036 H       1  UNL11       0.0657
     31 H          -4.1007    1.3977    1.6457 H       1  UNL11       0.0278
     32 H          -5.3408    0.7582    0.5521 H       1  UNL11       0.0278
     33 H          -4.4567   -0.4052    1.5561 H       1  UNL11       0.0278
     34 H           3.1863    1.8976    2.3129 H       1  UNL11       0.3292
@<TRIPOS>BOND
     1     1     2    1
     2     1    21    1
     3     1    22    1
     4     1    23    1
     5     2     3   ar
     6     3     4   ar
     7     3    24    1
     8     4     5   ar
     9     4    25    1
    10     5     6    1
    11     5    18   ar
    12     6     7    1
    13     7     8    2
    14     7     9    1
    15     9    10   ar
    16    10    11   ar
    17    10    26    1
    18    11    12   ar
    19    11    27    1
    20    12    13   ar
    21    12    28    1
    22    13    14    1
    23    13    17   ar
    24    14    15    2
    25    14    16    1
    26    17     9   ar
    27    17    29    1
    28    18    19   ar
    29    18    30    1
    30    19    20    1
    31    19     2   ar
    32    20    31    1
    33    20    32    1
    34    20    33    1
    35    16    34    1
@<TRIPOS>MOLECULE
*****
 34 35 0 0 0
SMALL
GASTEIGER

@<TRIPOS>ATOM
      1 C          -5.0442    0.7888   -1.8386 C.3     1  UNL11      -0.0395
      2 C          -3.6611    0.4825   -1.3995 C.ar    1  UNL11      -0.0473
      3 C          -2.6489    0.3071   -2.3302 C.ar    1  UNL11      -0.0551
      4 C          -1.3655    0.0228   -1.9185 C.ar    1  UNL11      -0.0190
      5 C          -1.0315   -0.0992   -0.5774 C.ar    1  UNL11       0.1322
      6 O           0.2777   -0.3849   -0.2681 O.3     1  UNL11      -0.4223
      7 C           1.3744   -0.0266   -1.0017 C.2     1  UNL11       0.3445
      8 O           1.3107    1.0287   -1.6823 O.2     1  UNL11      -0.2445
      9 C           2.6150   -0.7914   -1.0451 C.ar    1  UNL11       0.0616
     10 C           3.4219   -0.7849   -2.1633 C.ar    1  UNL11      -0.0476
     11 C           4.5940   -1.4877   -2.2472 C.ar    1  UNL11      -0.0588
     12 C           5.0083   -2.2378   -1.1917 C.ar    1  UNL11      -0.0316
     13 C           4.2348   -2.2800   -0.0422 C.ar    1  UNL11       0.1224
     14 N           4.6850   -3.0649    1.0394 N.4     1  UNL11       0.0060
     15 O           3.8810   -3.5928    1.8068 O.2     1  UNL11      -0.1300
     16 O           6.0229   -3.2356    1.2300 O.2     1  UNL11      -0.3961
     17 C           3.0458   -1.5549    0.0167 C.ar    1  UNL11      -0.0176
     18 C          -2.0292    0.0734    0.3473 C.ar    1  UNL11      -0.0161
     19 C          -3.3137    0.3581   -0.0687 C.ar    1  UNL11      -0.0441
     20 C          -4.3513    0.5344    0.9739 C.3     1  UNL11      -0.0393
     21 H          -4.9939    1.1314   -2.8994 H       1  UNL11       0.0278
     22 H          -5.4892    1.6462   -1.2782 H       1  UNL11       0.0278
     23 H          -5.7093   -0.0916   -1.8328 H       1  UNL11       0.0278
     24 H          -2.9265    0.4056   -3.3699 H       1  UNL11       0.0621
     25 H          -0.5764   -0.1128   -2.6753 H       1  UNL11       0.0654
     26 H           3.1179   -0.1974   -3.0178 H       1  UNL11       0.0626
     27 H           5.1751   -1.4290   -3.1691 H       1  UNL11       0.0618
     28 H           5.9376   -2.7848   -1.2806 H       1  UNL11       0.0640
     29 H           2.4335   -1.5772    0.9026 H       1  UNL11       0.0648
     30 H          -1.7629   -0.0234    1.4036 H       1  UNL11       0.0657
     31 H          -4.1007    1.3977    1.6457 H       1  UNL11       0.0278
     32 H          -5.3408    0.7582    0.5521 H       1  UNL11       0.0278
     33 H          -4.4567   -0.4052    1.5561 H       1  UNL11       0.0278
     34 H           6.6346   -2.8333    0.6452 H       1  UNL11       0.3292
@<TRIPOS>BOND
     1     1     2    1
     2     1    21    1
     3     1    22    1
     4     1    23    1
     5     2     3   ar
     6     3     4   ar
     7     3    24    1
     8     4     5   ar
     9     4    25    1
    10     5     6    1
    11     5    18   ar
    12     6     7    1
    13     7     8    2
    14     7     9    1
    15     9    10   ar
    16    10    11   ar
    17    10    26    1
    18    11    12   ar
    19    11    27    1
    20    12    13   ar
    21    12    28    1
    22    13    14    1
    23    13    17   ar
    24    14    15    2
    25    14    16    1
    26    17     9   ar
    27    17    29    1
    28    18    19   ar
    29    18    30    1
    30    19    20    1
    31    19     2   ar
    32    20    31    1
    33    20    32    1
    34    20    33    1
    35    16    34    1
@<TRIPOS>MOLECULE
*****
 34 35 0 0 0
SMALL
GASTEIGER

@<TRIPOS>ATOM
      1 C          -5.0442    0.7888   -1.8386 C.3     1  UNL11      -0.0395
      2 C          -3.6611    0.4825   -1.3995 C.ar    1  UNL11      -0.0473
      3 C          -2.6489    0.3071   -2.3302 C.ar    1  UNL11      -0.0551
      4 C          -1.3655    0.0228   -1.9185 C.ar    1  UNL11      -0.0190
      5 C          -1.0315   -0.0992   -0.5774 C.ar    1  UNL11       0.1322
      6 O           0.2777   -0.3849   -0.2681 O.3     1  UNL11      -0.4223
      7 C           1.2956   -0.5628   -1.1634 C.2     1  UNL11       0.3445
      8 O           1.0102   -1.0217   -2.2988 O.2     1  UNL11      -0.2445
      9 C           2.6930   -0.2539   -0.8851 C.ar    1  UNL11       0.0616
     10 C           3.5558    0.1303   -1.8900 C.ar    1  UNL11      -0.0476
     11 C           4.8743    0.4293   -1.6737 C.ar    1  UNL11      -0.0588
     12 C           5.3864    0.3526   -0.4166 C.ar    1  UNL11      -0.0316
     13 C           4.5628   -0.0288    0.6311 C.ar    1  UNL11       0.1224
     14 N           5.1166   -0.1012    1.9261 N.4     1  UNL11       0.0060
     15 O           6.0508    0.6315    2.2490 O.2     1  UNL11      -0.1300
     16 O           4.6077   -0.9926    2.8216 O.2     1  UNL11      -0.3961
     17 C           3.2241   -0.3277    0.3832 C.ar    1  UNL11      -0.0176
     18 C          -2.0292    0.0734    0.3473 C.ar    1  UNL11      -0.0161
     19 C          -3.3137    0.3581   -0.0687 C.ar    1  UNL11      -0.0441
     20 C          -4.3513    0.5344    0.9739 C.3     1  UNL11      -0.0393
     21 H          -4.9939    1.1314   -2.8994 H       1  UNL11       0.0278
     22 H          -5.4892    1.6462   -1.2782 H       1  UNL11       0.0278
     23 H          -5.7093   -0.0916   -1.8328 H       1  UNL11       0.0278
     24 H          -2.9265    0.4056   -3.3699 H       1  UNL11       0.0621
     25 H          -0.5764   -0.1128   -2.6753 H       1  UNL11       0.0654
     26 H           3.1765    0.2001   -2.8994 H       1  UNL11       0.0626
     27 H           5.4906    0.7256   -2.5242 H       1  UNL11       0.0618
     28 H           6.4310    0.5933   -0.2694 H       1  UNL11       0.0640
     29 H           2.5711   -0.6256    1.1864 H       1  UNL11       0.0648
     30 H          -1.7629   -0.0234    1.4036 H       1  UNL11       0.0657
     31 H          -4.1007    1.3977    1.6457 H       1  UNL11       0.0278
     32 H          -5.3408    0.7582    0.5521 H       1  UNL11       0.0278
     33 H          -4.4567   -0.4052    1.5561 H       1  UNL11       0.0278
     34 H           3.8963   -1.5503    2.5748 H       1  UNL11       0.3292
@<TRIPOS>BOND
     1     1     2    1
     2     1    21    1
     3     1    22    1
     4     1    23    1
     5     2     3   ar
     6     3     4   ar
     7     3    24    1
     8     4     5   ar
     9     4    25    1
    10     5     6    1
    11     5    18   ar
    12     6     7    1
    13     7     8    2
    14     7     9    1
    15     9    10   ar
    16    10    11   ar
    17    10    26    1
    18    11    12   ar
    19    11    27    1
    20    12    13   ar
    21    12    28    1
    22    13    14    1
    23    13    17   ar
    24    14    15    2
    25    14    16    1
    26    17     9   ar
    27    17    29    1
    28    18    19   ar
    29    18    30    1
    30    19    20    1
    31    19     2   ar
    32    20    31    1
    33    20    32    1
    34    20    33    1
    35    16    34    1
@<TRIPOS>MOLECULE
*****
 34 35 0 0 0
SMALL
GASTEIGER

@<TRIPOS>ATOM
      1 C          -5.0442    0.7888   -1.8386 C.3     1  UNL11      -0.0395
      2 C          -3.6611    0.4825   -1.3995 C.ar    1  UNL11      -0.0473
      3 C          -2.6489    0.3071   -2.3302 C.ar    1  UNL11      -0.0551
      4 C          -1.3655    0.0228   -1.9185 C.ar    1  UNL11      -0.0190
      5 C          -1.0315   -0.0992   -0.5774 C.ar    1  UNL11       0.1322
      6 O           0.2777   -0.3849   -0.2681 O.3     1  UNL11      -0.4223
      7 C           1.3744   -0.0266   -1.0017 C.2     1  UNL11       0.3445
      8 O           1.5879    1.1989   -1.1849 O.2     1  UNL11      -0.2445
      9 C           2.3136   -0.9764   -1.5861 C.ar    1  UNL11       0.0616
     10 C           2.9991   -0.6846   -2.7464 C.ar    1  UNL11      -0.0476
     11 C           3.8894   -1.5463   -3.3293 C.ar    1  UNL11      -0.0588
     12 C           4.1298   -2.7565   -2.7584 C.ar    1  UNL11      -0.0316
     13 C           3.4675   -3.1011   -1.5905 C.ar    1  UNL11       0.1224
     14 N           3.7332   -4.3618   -1.0170 N.4     1  UNL11       0.0060
     15 O           4.5351   -5.1323   -1.5435 O.2     1  UNL11      -0.1300
     16 O           3.0926   -4.7226    0.1298 O.2     1  UNL11      -0.3961
     17 C           2.5661   -2.2051   -1.0180 C.ar    1  UNL11      -0.0176
     18 C          -2.0292    0.0734    0.3473 C.ar    1  UNL11      -0.0161
     19 C          -3.3137    0.3581   -0.0687 C.ar    1  UNL11      -0.0441
     20 C          -4.3513    0.5344    0.9739 C.3     1  UNL11      -0.0393
     21 H          -4.9939    1.1314   -2.8994 H       1  UNL11       0.0278
     22 H          -5.4892    1.6462   -1.2782 H       1  UNL11       0.0278
     23 H          -5.7093   -0.0916   -1.8328 H       1  UNL11       0.0278
     24 H          -2.9265    0.4056   -3.3699 H       1  UNL11       0.0621
     25 H          -0.5764   -0.1128   -2.6753 H       1  UNL11       0.0654
     26 H           2.8282    0.2703   -3.2225 H       1  UNL11       0.0626
     27 H           4.3910   -1.2387   -4.2483 H       1  UNL11       0.0618
     28 H           4.8372   -3.4211   -3.2365 H       1  UNL11       0.0640
     29 H           2.0434   -2.4579   -0.1108 H       1  UNL11       0.0648
     30 H          -1.7629   -0.0234    1.4036 H       1  UNL11       0.0657
     31 H          -4.1007    1.3977    1.6457 H       1  UNL11       0.0278
     32 H          -5.3408    0.7582    0.5521 H       1  UNL11       0.0278
     33 H          -4.4567   -0.4052    1.5561 H       1  UNL11       0.0278
     34 H           2.4821   -4.1353    0.5301 H       1  UNL11       0.3292
@<TRIPOS>BOND
     1     1     2    1
     2     1    21    1
     3     1    22    1
     4     1    23    1
     5     2     3   ar
     6     3     4   ar
     7     3    24    1
     8     4     5   ar
     9     4    25    1
    10     5     6    1
    11     5    18   ar
    12     6     7    1
    13     7     8    2
    14     7     9    1
    15     9    10   ar
    16    10    11   ar
    17    10    26    1
    18    11    12   ar
    19    11    27    1
    20    12    13   ar
    21    12    28    1
    22    13    14    1
    23    13    17   ar
    24    14    15    2
    25    14    16    1
    26    17     9   ar
    27    17    29    1
    28    18    19   ar
    29    18    30    1
    30    19    20    1
    31    19     2   ar
    32    20    31    1
    33    20    32    1
    34    20    33    1
    35    16    34    1
@<TRIPOS>MOLECULE
*****
 34 35 0 0 0
SMALL
GASTEIGER

@<TRIPOS>ATOM
      1 C          -5.0442    0.7888   -1.8386 C.3     1  UNL11      -0.0395
      2 C          -3.6611    0.4825   -1.3995 C.ar    1  UNL11      -0.0473
      3 C          -2.6489    0.3071   -2.3302 C.ar    1  UNL11      -0.0551
      4 C          -1.3655    0.0228   -1.9185 C.ar    1  UNL11      -0.0190
      5 C          -1.0315   -0.0992   -0.5774 C.ar    1  UNL11       0.1322
      6 O           0.2777   -0.3849   -0.2681 O.3     1  UNL11      -0.4223
      7 C           0.7121   -1.0891    0.8204 C.2     1  UNL11       0.3445
      8 O           0.4232   -0.6492    1.9623 O.2     1  UNL11      -0.2445
      9 C           1.4901   -2.3196    0.7412 C.ar    1  UNL11       0.0616
     10 C           1.4036   -3.2863    1.7208 C.ar    1  UNL11      -0.0476
     11 C           2.1154   -4.4555    1.6865 C.ar    1  UNL11      -0.0588
     12 C           2.9570   -4.7032    0.6478 C.ar    1  UNL11      -0.0316
     13 C           3.0822   -3.7648   -0.3646 C.ar    1  UNL11       0.1224
     14 N           3.9612   -4.0439   -1.4315 N.4     1  UNL11       0.0060
     15 O           4.1144   -3.2333   -2.3443 O.2     1  UNL11      -0.1300
     16 O           4.6429   -5.2231   -1.4446 O.2     1  UNL11      -0.3961
     17 C           2.3458   -2.5827   -0.3051 C.ar    1  UNL11      -0.0176
     18 C          -2.0292    0.0734    0.3473 C.ar    1  UNL11      -0.0161
     19 C          -3.3137    0.3581   -0.0687 C.ar    1  UNL11      -0.0441
     20 C          -4.3513    0.5344    0.9739 C.3     1  UNL11      -0.0393
     21 H          -4.9939    1.1314   -2.8994 H       1  UNL11       0.0278
     22 H          -5.4892    1.6462   -1.2782 H       1  UNL11       0.0278
     23 H          -5.7093   -0.0916   -1.8328 H       1  UNL11       0.0278
     24 H          -2.9265    0.4056   -3.3699 H       1  UNL11       0.0621
     25 H          -0.5764   -0.1128   -2.6753 H       1  UNL11       0.0654
     26 H           0.7425   -3.1168    2.5586 H       1  UNL11       0.0626
     27 H           1.9896   -5.1694    2.5023 H       1  UNL11       0.0618
     28 H           3.5093   -5.6336    0.6418 H       1  UNL11       0.0640
     29 H           2.4319   -1.8435   -1.0838 H       1  UNL11       0.0648
     30 H          -1.7629   -0.0234    1.4036 H       1  UNL11       0.0657
     31 H          -4.1007    1.3977    1.6457 H       1  UNL11       0.0278
     32 H          -5.3408    0.7582    0.5521 H       1  UNL11       0.0278
     33 H          -4.4567   -0.4052    1.5561 H       1  UNL11       0.0278
     34 H           4.5256   -5.8399   -0.7490 H       1  UNL11       0.3292
@<TRIPOS>BOND
     1     1     2    1
     2     1    21    1
     3     1    22    1
     4     1    23    1
     5     2     3   ar
     6     3     4   ar
     7     3    24    1
     8     4     5   ar
     9     4    25    1
    10     5     6    1
    11     5    18   ar
    12     6     7    1
    13     7     8    2
    14     7     9    1
    15     9    10   ar
    16    10    11   ar
    17    10    26    1
    18    11    12   ar
    19    11    27    1
    20    12    13   ar
    21    12    28    1
    22    13    14    1
    23    13    17   ar
    24    14    15    2
    25    14    16    1
    26    17     9   ar
    27    17    29    1
    28    18    19   ar
    29    18    30    1
    30    19    20    1
    31    19     2   ar
    32    20    31    1
    33    20    32    1
    34    20    33    1
    35    16    34    1
@<TRIPOS>MOLECULE
*****
 34 35 0 0 0
SMALL
GASTEIGER

@<TRIPOS>ATOM
      1 C          -5.0442    0.7888   -1.8386 C.3     1  UNL11      -0.0395
      2 C          -3.6611    0.4825   -1.3995 C.ar    1  UNL11      -0.0473
      3 C          -2.6489    0.3071   -2.3302 C.ar    1  UNL11      -0.0551
      4 C          -1.3655    0.0228   -1.9185 C.ar    1  UNL11      -0.0190
      5 C          -1.0315   -0.0992   -0.5774 C.ar    1  UNL11       0.1322
      6 O           0.2777   -0.3849   -0.2681 O.3     1  UNL11      -0.4223
      7 C           0.9405    0.0036    0.8629 C.2     1  UNL11       0.3445
      8 O           0.2710    0.1596    1.9157 O.2     1  UNL11      -0.2445
      9 C           2.3763    0.2490    0.9260 C.ar    1  UNL11       0.0616
     10 C           3.0741    0.7058   -0.1722 C.ar    1  UNL11      -0.0476
     11 C           4.4215    0.9492   -0.1574 C.ar    1  UNL11      -0.0588
     12 C           5.1328    0.7394    0.9821 C.ar    1  UNL11      -0.0316
     13 C           4.4808    0.2804    2.1159 C.ar    1  UNL11       0.1224
     14 N           5.2396    0.0702    3.2859 N.4     1  UNL11       0.0060
     15 O           6.4271   -0.2438    3.2135 O.2     1  UNL11      -0.1300
     16 O           4.6460    0.2177    4.5030 O.2     1  UNL11      -0.3961
     17 C           3.1083    0.0405    2.0735 C.ar    1  UNL11      -0.0176
     18 C          -2.0292    0.0734    0.3473 C.ar    1  UNL11      -0.0161
     19 C          -3.3137    0.3581   -0.0687 C.ar    1  UNL11      -0.0441
     20 C          -4.3513    0.5344    0.9739 C.3     1  UNL11      -0.0393
     21 H          -4.9939    1.1314   -2.8994 H       1  UNL11       0.0278
     22 H          -5.4892    1.6462   -1.2782 H       1  UNL11       0.0278
     23 H          -5.7093   -0.0916   -1.8328 H       1  UNL11       0.0278
     24 H          -2.9265    0.4056   -3.3699 H       1  UNL11       0.0621
     25 H          -0.5764   -0.1128   -2.6753 H       1  UNL11       0.0654
     26 H           2.5347    0.8816   -1.0919 H       1  UNL11       0.0626
     27 H           4.8986    1.3100   -1.0701 H       1  UNL11       0.0618
     28 H           6.1962    0.9385    0.9705 H       1  UNL11       0.0640
     29 H           2.5870   -0.3163    2.9459 H       1  UNL11       0.0648
     30 H          -1.7629   -0.0234    1.4036 H       1  UNL11       0.0657
     31 H          -4.1007    1.3977    1.6457 H       1  UNL11       0.0278
     32 H          -5.3408    0.7582    0.5521 H       1  UNL11       0.0278
     33 H          -4.4567   -0.4052    1.5561 H       1  UNL11       0.0278
     34 H           3.7416    0.4568    4.5572 H       1  UNL11       0.3292
@<TRIPOS>BOND
     1     1     2    1
     2     1    21    1
     3     1    22    1
     4     1    23    1
     5     2     3   ar
     6     3     4   ar
     7     3    24    1
     8     4     5   ar
     9     4    25    1
    10     5     6    1
    11     5    18   ar
    12     6     7    1
    13     7     8    2
    14     7     9    1
    15     9    10   ar
    16    10    11   ar
    17    10    26    1
    18    11    12   ar
    19    11    27    1
    20    12    13   ar
    21    12    28    1
    22    13    14    1
    23    13    17   ar
    24    14    15    2
    25    14    16    1
    26    17     9   ar
    27    17    29    1
    28    18    19   ar
    29    18    30    1
    30    19    20    1
    31    19     2   ar
    32    20    31    1
    33    20    32    1
    34    20    33    1
    35    16    34    1
@<TRIPOS>MOLECULE
*****
 34 35 0 0 0
SMALL
GASTEIGER

@<TRIPOS>ATOM
      1 C          -5.0442    0.7888   -1.8386 C.3     1  UNL11      -0.0395
      2 C          -3.6611    0.4825   -1.3995 C.ar    1  UNL11      -0.0473
      3 C          -2.6489    0.3071   -2.3302 C.ar    1  UNL11      -0.0551
      4 C          -1.3655    0.0228   -1.9185 C.ar    1  UNL11      -0.0190
      5 C          -1.0315   -0.0992   -0.5774 C.ar    1  UNL11       0.1322
      6 O           0.2777   -0.3849   -0.2681 O.3     1  UNL11      -0.4223
      7 C           1.1508   -1.0963   -1.0433 C.2     1  UNL11       0.3445
      8 O           1.4210   -0.6523   -2.1883 O.2     1  UNL11      -0.2445
      9 C           1.7896   -2.3388   -0.6264 C.ar    1  UNL11       0.0616
     10 C           2.0770   -2.5869    0.6993 C.ar    1  UNL11      -0.0476
     11 C           2.6755   -3.7389    1.1348 C.ar    1  UNL11      -0.0588
     12 C           3.0145   -4.7037    0.2389 C.ar    1  UNL11      -0.0316
     13 C           2.7481   -4.5058   -1.1070 C.ar    1  UNL11       0.1224
     14 N           3.1089   -5.5207   -2.0173 N.4     1  UNL11       0.0060
     15 O           3.6452   -6.5548   -1.6213 O.2     1  UNL11      -0.1300
     16 O           2.8583   -5.3474   -3.3450 O.2     1  UNL11      -0.3961
     17 C           2.1379   -3.3237   -1.5234 C.ar    1  UNL11      -0.0176
     18 C          -2.0292    0.0734    0.3473 C.ar    1  UNL11      -0.0161
     19 C          -3.3137    0.3581   -0.0687 C.ar    1  UNL11      -0.0441
     20 C          -4.3513    0.5344    0.9739 C.3     1  UNL11      -0.0393
     21 H          -4.9939    1.1314   -2.8994 H       1  UNL11       0.0278
     22 H          -5.4892    1.6462   -1.2782 H       1  UNL11       0.0278
     23 H          -5.7093   -0.0916   -1.8328 H       1  UNL11       0.0278
     24 H          -2.9265    0.4056   -3.3699 H       1  UNL11       0.0621
     25 H          -0.5764   -0.1128   -2.6753 H       1  UNL11       0.0654
     26 H           1.8188   -1.8378    1.4341 H       1  UNL11       0.0626
     27 H           2.8688   -3.8576    2.2022 H       1  UNL11       0.0618
     28 H           3.4865   -5.6055    0.6057 H       1  UNL11       0.0640
     29 H           1.9242   -3.1548   -2.5655 H       1  UNL11       0.0648
     30 H          -1.7629   -0.0234    1.4036 H       1  UNL11       0.0657
     31 H          -4.1007    1.3977    1.6457 H       1  UNL11       0.0278
     32 H          -5.3408    0.7582    0.5521 H       1  UNL11       0.0278
     33 H          -4.4567   -0.4052    1.5561 H       1  UNL11       0.0278
     34 H           2.4499   -4.5596   -3.6458 H       1  UNL11       0.3292
@<TRIPOS>BOND
     1     1     2    1
     2     1    21    1
     3     1    22    1
     4     1    23    1
     5     2     3   ar
     6     3     4   ar
     7     3    24    1
     8     4     5   ar
     9     4    25    1
    10     5     6    1
    11     5    18   ar
    12     6     7    1
    13     7     8    2
    14     7     9    1
    15     9    10   ar
    16    10    11   ar
    17    10    26    1
    18    11    12   ar
    19    11    27    1
    20    12    13   ar
    21    12    28    1
    22    13    14    1
    23    13    17   ar
    24    14    15    2
    25    14    16    1
    26    17     9   ar
    27    17    29    1
    28    18    19   ar
    29    18    30    1
    30    19    20    1
    31    19     2   ar
    32    20    31    1
    33    20    32    1
    34    20    33    1
    35    16    34    1
@<TRIPOS>MOLECULE
*****
 34 35 0 0 0
SMALL
GASTEIGER

@<TRIPOS>ATOM
      1 C          -5.0442    0.7888   -1.8386 C.3     1  UNL11      -0.0395
      2 C          -3.6611    0.4825   -1.3995 C.ar    1  UNL11      -0.0473
      3 C          -2.6489    0.3071   -2.3302 C.ar    1  UNL11      -0.0551
      4 C          -1.3655    0.0228   -1.9185 C.ar    1  UNL11      -0.0190
      5 C          -1.0315   -0.0992   -0.5774 C.ar    1  UNL11       0.1322
      6 O           0.2777   -0.3849   -0.2681 O.3     1  UNL11      -0.4223
      7 C           0.7121   -1.0891    0.8204 C.2     1  UNL11       0.3445
      8 O           0.4232   -0.6492    1.9623 O.2     1  UNL11      -0.2445
      9 C           1.4901   -2.3196    0.7412 C.ar    1  UNL11       0.0616
     10 C           1.4036   -3.2863    1.7208 C.ar    1  UNL11      -0.0476
     11 C           2.1154   -4.4555    1.6865 C.ar    1  UNL11      -0.0588
     12 C           2.9570   -4.7032    0.6478 C.ar    1  UNL11      -0.0316
     13 C           3.0822   -3.7648   -0.3646 C.ar    1  UNL11       0.1224
     14 N           3.9612   -4.0439   -1.4315 N.4     1  UNL11       0.0060
     15 O           4.5977   -5.0965   -1.4587 O.2     1  UNL11      -0.1300
     16 O           4.1016   -3.1355   -2.4368 O.2     1  UNL11      -0.3961
     17 C           2.3458   -2.5827   -0.3051 C.ar    1  UNL11      -0.0176
     18 C          -2.0292    0.0734    0.3473 C.ar    1  UNL11      -0.0161
     19 C          -3.3137    0.3581   -0.0687 C.ar    1  UNL11      -0.0441
     20 C          -4.3513    0.5344    0.9739 C.3     1  UNL11      -0.0393
     21 H          -4.9939    1.1314   -2.8994 H       1  UNL11       0.0278
     22 H          -5.4892    1.6462   -1.2782 H       1  UNL11       0.0278
     23 H          -5.7093   -0.0916   -1.8328 H       1  UNL11       0.0278
     24 H          -2.9265    0.4056   -3.3699 H       1  UNL11       0.0621
     25 H          -0.5764   -0.1128   -2.6753 H       1  UNL11       0.0654
     26 H           0.7425   -3.1168    2.5586 H       1  UNL11       0.0626
     27 H           1.9896   -5.1694    2.5023 H       1  UNL11       0.0618
     28 H           3.5093   -5.6336    0.6418 H       1  UNL11       0.0640
     29 H           2.4319   -1.8435   -1.0838 H       1  UNL11       0.0648
     30 H          -1.7629   -0.0234    1.4036 H       1  UNL11       0.0657
     31 H          -4.1007    1.3977    1.6457 H       1  UNL11       0.0278
     32 H          -5.3408    0.7582    0.5521 H       1  UNL11       0.0278
     33 H          -4.4567   -0.4052    1.5561 H       1  UNL11       0.0278
     34 H           3.6165   -2.3342   -2.4153 H       1  UNL11       0.3292
@<TRIPOS>BOND
     1     1     2    1
     2     1    21    1
     3     1    22    1
     4     1    23    1
     5     2     3   ar
     6     3     4   ar
     7     3    24    1
     8     4     5   ar
     9     4    25    1
    10     5     6    1
    11     5    18   ar
    12     6     7    1
    13     7     8    2
    14     7     9    1
    15     9    10   ar
    16    10    11   ar
    17    10    26    1
    18    11    12   ar
    19    11    27    1
    20    12    13   ar
    21    12    28    1
    22    13    14    1
    23    13    17   ar
    24    14    15    2
    25    14    16    1
    26    17     9   ar
    27    17    29    1
    28    18    19   ar
    29    18    30    1
    30    19    20    1
    31    19     2   ar
    32    20    31    1
    33    20    32    1
    34    20    33    1
    35    16    34    1
@<TRIPOS>MOLECULE
*****
 34 35 0 0 0
SMALL
GASTEIGER

@<TRIPOS>ATOM
      1 C          -5.0442    0.7888   -1.8386 C.3     1  UNL11      -0.0395
      2 C          -3.6611    0.4825   -1.3995 C.ar    1  UNL11      -0.0473
      3 C          -2.6489    0.3071   -2.3302 C.ar    1  UNL11      -0.0551
      4 C          -1.3655    0.0228   -1.9185 C.ar    1  UNL11      -0.0190
      5 C          -1.0315   -0.0992   -0.5774 C.ar    1  UNL11       0.1322
      6 O           0.2777   -0.3849   -0.2681 O.3     1  UNL11      -0.4223
      7 C           0.7121   -1.0891    0.8204 C.2     1  UNL11       0.3445
      8 O           0.0214   -1.0398    1.8699 O.2     1  UNL11      -0.2445
      9 C           1.9270   -1.8949    0.8416 C.ar    1  UNL11       0.0616
     10 C           2.0349   -3.0073    1.6493 C.ar    1  UNL11      -0.0476
     11 C           3.1560   -3.7918    1.7007 C.ar    1  UNL11      -0.0588
     12 C           4.2316   -3.4833    0.9285 C.ar    1  UNL11      -0.0316
     13 C           4.1768   -2.3751    0.0977 C.ar    1  UNL11       0.1224
     14 N           5.3048   -2.0751   -0.6938 N.4     1  UNL11       0.0060
     15 O           5.5659   -0.9111   -0.9954 O.2     1  UNL11      -0.1300
     16 O           6.1074   -3.0879   -1.1245 O.2     1  UNL11      -0.3961
     17 C           3.0232   -1.5934    0.0647 C.ar    1  UNL11      -0.0176
     18 C          -2.0292    0.0734    0.3473 C.ar    1  UNL11      -0.0161
     19 C          -3.3137    0.3581   -0.0687 C.ar    1  UNL11      -0.0441
     20 C          -4.3513    0.5344    0.9739 C.3     1  UNL11      -0.0393
     21 H          -4.9939    1.1314   -2.8994 H       1  UNL11       0.0278
     22 H          -5.4892    1.6462   -1.2782 H       1  UNL11       0.0278
     23 H          -5.7093   -0.0916   -1.8328 H       1  UNL11       0.0278
     24 H          -2.9265    0.4056   -3.3699 H       1  UNL11       0.0621
     25 H          -0.5764   -0.1128   -2.6753 H       1  UNL11       0.0654
     26 H           1.1955   -3.2769    2.2742 H       1  UNL11       0.0626
     27 H           3.1606   -4.6559    2.3673 H       1  UNL11       0.0618
     28 H           5.1065   -4.1173    0.9855 H       1  UNL11       0.0640
     29 H           2.9648   -0.7291   -0.5754 H       1  UNL11       0.0648
     30 H          -1.7629   -0.0234    1.4036 H       1  UNL11       0.0657
     31 H          -4.1007    1.3977    1.6457 H       1  UNL11       0.0278
     32 H          -5.3408    0.7582    0.5521 H       1  UNL11       0.0278
     33 H          -4.4567   -0.4052    1.5561 H       1  UNL11       0.0278
     34 H           5.9079   -3.9740   -0.8944 H       1  UNL11       0.3292
@<TRIPOS>BOND
     1     1     2    1
     2     1    21    1
     3     1    22    1
     4     1    23    1
     5     2     3   ar
     6     3     4   ar
     7     3    24    1
     8     4     5   ar
     9     4    25    1
    10     5     6    1
    11     5    18   ar
    12     6     7    1
    13     7     8    2
    14     7     9    1
    15     9    10   ar
    16    10    11   ar
    17    10    26    1
    18    11    12   ar
    19    11    27    1
    20    12    13   ar
    21    12    28    1
    22    13    14    1
    23    13    17   ar
    24    14    15    2
    25    14    16    1
    26    17     9   ar
    27    17    29    1
    28    18    19   ar
    29    18    30    1
    30    19    20    1
    31    19     2   ar
    32    20    31    1
    33    20    32    1
    34    20    33    1
    35    16    34    1
@<TRIPOS>MOLECULE
*****
 34 35 0 0 0
SMALL
GASTEIGER

@<TRIPOS>ATOM
      1 C          -5.0442    0.7888   -1.8386 C.3     1  UNL11      -0.0395
      2 C          -3.6611    0.4825   -1.3995 C.ar    1  UNL11      -0.0473
      3 C          -2.6489    0.3071   -2.3302 C.ar    1  UNL11      -0.0551
      4 C          -1.3655    0.0228   -1.9185 C.ar    1  UNL11      -0.0190
      5 C          -1.0315   -0.0992   -0.5774 C.ar    1  UNL11       0.1322
      6 O           0.2777   -0.3849   -0.2681 O.3     1  UNL11      -0.4223
      7 C           0.7121   -1.0891    0.8204 C.2     1  UNL11       0.3445
      8 O          -0.1505   -1.5230    1.6258 O.2     1  UNL11      -0.2445
      9 C           2.1138   -1.3695    1.1070 C.ar    1  UNL11       0.0616
     10 C           2.4919   -2.5051    1.7919 C.ar    1  UNL11      -0.0476
     11 C           3.7954   -2.8074    2.0824 C.ar    1  UNL11      -0.0588
     12 C           4.7875   -1.9653    1.6888 C.ar    1  UNL11      -0.0316
     13 C           4.4632   -0.8088    0.9968 C.ar    1  UNL11       0.1224
     14 N           5.5093    0.0492    0.5990 N.4     1  UNL11       0.0060
     15 O           5.3232    1.2620    0.5074 O.2     1  UNL11      -0.1300
     16 O           6.7334   -0.4765    0.3152 O.2     1  UNL11      -0.3961
     17 C           3.1280   -0.5250    0.7141 C.ar    1  UNL11      -0.0176
     18 C          -2.0292    0.0734    0.3473 C.ar    1  UNL11      -0.0161
     19 C          -3.3137    0.3581   -0.0687 C.ar    1  UNL11      -0.0441
     20 C          -4.3513    0.5344    0.9739 C.3     1  UNL11      -0.0393
     21 H          -4.9939    1.1314   -2.8994 H       1  UNL11       0.0278
     22 H          -5.4892    1.6462   -1.2782 H       1  UNL11       0.0278
     23 H          -5.7093   -0.0916   -1.8328 H       1  UNL11       0.0278
     24 H          -2.9265    0.4056   -3.3699 H       1  UNL11       0.0621
     25 H          -0.5764   -0.1128   -2.6753 H       1  UNL11       0.0654
     26 H           1.7247   -3.1930    2.1173 H       1  UNL11       0.0626
     27 H           4.0105   -3.7272    2.6290 H       1  UNL11       0.0618
     28 H           5.8100   -2.2245    1.9294 H       1  UNL11       0.0640
     29 H           2.8595    0.3694    0.1773 H       1  UNL11       0.0648
     30 H          -1.7629   -0.0234    1.4036 H       1  UNL11       0.0657
     31 H          -4.1007    1.3977    1.6457 H       1  UNL11       0.0278
     32 H          -5.3408    0.7582    0.5521 H       1  UNL11       0.0278
     33 H          -4.4567   -0.4052    1.5561 H       1  UNL11       0.0278
     34 H           6.8743   -1.4002    0.3851 H       1  UNL11       0.3292
@<TRIPOS>BOND
     1     1     2    1
     2     1    21    1
     3     1    22    1
     4     1    23    1
     5     2     3   ar
     6     3     4   ar
     7     3    24    1
     8     4     5   ar
     9     4    25    1
    10     5     6    1
    11     5    18   ar
    12     6     7    1
    13     7     8    2
    14     7     9    1
    15     9    10   ar
    16    10    11   ar
    17    10    26    1
    18    11    12   ar
    19    11    27    1
    20    12    13   ar
    21    12    28    1
    22    13    14    1
    23    13    17   ar
    24    14    15    2
    25    14    16    1
    26    17     9   ar
    27    17    29    1
    28    18    19   ar
    29    18    30    1
    30    19    20    1
    31    19     2   ar
    32    20    31    1
    33    20    32    1
    34    20    33    1
    35    16    34    1
@<TRIPOS>MOLECULE
*****
 34 35 0 0 0
SMALL
GASTEIGER

@<TRIPOS>ATOM
      1 C          -5.0442    0.7888   -1.8386 C.3     1  UNL11      -0.0395
      2 C          -3.6611    0.4825   -1.3995 C.ar    1  UNL11      -0.0473
      3 C          -2.6489    0.3071   -2.3302 C.ar    1  UNL11      -0.0551
      4 C          -1.3655    0.0228   -1.9185 C.ar    1  UNL11      -0.0190
      5 C          -1.0315   -0.0992   -0.5774 C.ar    1  UNL11       0.1322
      6 O           0.2777   -0.3849   -0.2681 O.3     1  UNL11      -0.4223
      7 C           0.7121   -1.0891    0.8204 C.2     1  UNL11       0.3445
      8 O           0.0214   -1.0398    1.8699 O.2     1  UNL11      -0.2445
      9 C           1.9270   -1.8949    0.8416 C.ar    1  UNL11       0.0616
     10 C           2.6441   -2.0794    2.0050 C.ar    1  UNL11      -0.0476
     11 C           3.7892   -2.8273    2.0703 C.ar    1  UNL11      -0.0588
     12 C           4.2667   -3.4299    0.9490 C.ar    1  UNL11      -0.0316
     13 C           3.5846   -3.2772   -0.2480 C.ar    1  UNL11       0.1224
     14 N           4.0992   -3.9115   -1.3977 N.4     1  UNL11       0.0060
     15 O           5.1277   -4.5838   -1.3339 O.2     1  UNL11      -0.1300
     16 O           3.4465   -3.7741   -2.5854 O.2     1  UNL11      -0.3961
     17 C           2.4212   -2.5103   -0.2867 C.ar    1  UNL11      -0.0176
     18 C          -2.0292    0.0734    0.3473 C.ar    1  UNL11      -0.0161
     19 C          -3.3137    0.3581   -0.0687 C.ar    1  UNL11      -0.0441
     20 C          -4.3513    0.5344    0.9739 C.3     1  UNL11      -0.0393
     21 H          -4.9939    1.1314   -2.8994 H       1  UNL11       0.0278
     22 H          -5.4892    1.6462   -1.2782 H       1  UNL11       0.0278
     23 H          -5.7093   -0.0916   -1.8328 H       1  UNL11       0.0278
     24 H          -2.9265    0.4056   -3.3699 H       1  UNL11       0.0621
     25 H          -0.5764   -0.1128   -2.6753 H       1  UNL11       0.0654
     26 H           2.2882   -1.6124    2.9121 H       1  UNL11       0.0626
     27 H           4.2977   -2.9239    3.0310 H       1  UNL11       0.0618
     28 H           5.1731   -4.0159    1.0243 H       1  UNL11       0.0640
     29 H           1.8797   -2.3819   -1.2089 H       1  UNL11       0.0648
     30 H          -1.7629   -0.0234    1.4036 H       1  UNL11       0.0657
     31 H          -4.1007    1.3977    1.6457 H       1  UNL11       0.0278
     32 H          -5.3408    0.7582    0.5521 H       1  UNL11       0.0278
     33 H          -4.4567   -0.4052    1.5561 H       1  UNL11       0.0278
     34 H           2.6634   -3.2619   -2.6331 H       1  UNL11       0.3292
@<TRIPOS>BOND
     1     1     2    1
     2     1    21    1
     3     1    22    1
     4     1    23    1
     5     2     3   ar
     6     3     4   ar
     7     3    24    1
     8     4     5   ar
     9     4    25    1
    10     5     6    1
    11     5    18   ar
    12     6     7    1
    13     7     8    2
    14     7     9    1
    15     9    10   ar
    16    10    11   ar
    17    10    26    1
    18    11    12   ar
    19    11    27    1
    20    12    13   ar
    21    12    28    1
    22    13    14    1
    23    13    17   ar
    24    14    15    2
    25    14    16    1
    26    17     9   ar
    27    17    29    1
    28    18    19   ar
    29    18    30    1
    30    19    20    1
    31    19     2   ar
    32    20    31    1
    33    20    32    1
    34    20    33    1
    35    16    34    1
@<TRIPOS>MOLECULE
*****
 34 35 0 0 0
SMALL
GASTEIGER

@<TRIPOS>ATOM
      1 C          -5.0442    0.7888   -1.8386 C.3     1  UNL11      -0.0395
      2 C          -3.6611    0.4825   -1.3995 C.ar    1  UNL11      -0.0473
      3 C          -2.6489    0.3071   -2.3302 C.ar    1  UNL11      -0.0551
      4 C          -1.3655    0.0228   -1.9185 C.ar    1  UNL11      -0.0190
      5 C          -1.0315   -0.0992   -0.5774 C.ar    1  UNL11       0.1322
      6 O           0.2777   -0.3849   -0.2681 O.3     1  UNL11      -0.4223
      7 C           0.7890   -0.5546    0.9885 C.2     1  UNL11       0.3445
      8 O           0.3220   -1.4834    1.6958 O.2     1  UNL11      -0.2445
      9 C           1.8428    0.2741    1.5616 C.ar    1  UNL11       0.0616
     10 C           2.3147    0.0518    2.8381 C.ar    1  UNL11      -0.0476
     11 C           3.3021    0.8049    3.4152 C.ar    1  UNL11      -0.0588
     12 C           3.8637    1.8290    2.7193 C.ar    1  UNL11      -0.0316
     13 C           3.4266    2.0963    1.4313 C.ar    1  UNL11       0.1224
     14 N           4.0242    3.1635    0.7293 N.4     1  UNL11       0.0060
     15 O           3.6575    3.4457   -0.4108 O.2     1  UNL11      -0.1300
     16 O           5.0152    3.8836    1.3251 O.2     1  UNL11      -0.3961
     17 C           2.4199    1.3141    0.8676 C.ar    1  UNL11      -0.0176
     18 C          -2.0292    0.0734    0.3473 C.ar    1  UNL11      -0.0161
     19 C          -3.3137    0.3581   -0.0687 C.ar    1  UNL11      -0.0441
     20 C          -4.3513    0.5344    0.9739 C.3     1  UNL11      -0.0393
     21 H          -4.9939    1.1314   -2.8994 H       1  UNL11       0.0278
     22 H          -5.4892    1.6462   -1.2782 H       1  UNL11       0.0278
     23 H          -5.7093   -0.0916   -1.8328 H       1  UNL11       0.0278
     24 H          -2.9265    0.4056   -3.3699 H       1  UNL11       0.0621
     25 H          -0.5764   -0.1128   -2.6753 H       1  UNL11       0.0654
     26 H           1.8869   -0.7556    3.4150 H       1  UNL11       0.0626
     27 H           3.6190    0.5633    4.4311 H       1  UNL11       0.0618
     28 H           4.6421    2.4105    3.1953 H       1  UNL11       0.0640
     29 H           2.0692    1.5089   -0.1320 H       1  UNL11       0.0648
     30 H          -1.7629   -0.0234    1.4036 H       1  UNL11       0.0657
     31 H          -4.1007    1.3977    1.6457 H       1  UNL11       0.0278
     32 H          -5.3408    0.7582    0.5521 H       1  UNL11       0.0278
     33 H          -4.4567   -0.4052    1.5561 H       1  UNL11       0.0278
     34 H           5.2938    3.6681    2.1934 H       1  UNL11       0.3292
@<TRIPOS>BOND
     1     1     2    1
     2     1    21    1
     3     1    22    1
     4     1    23    1
     5     2     3   ar
     6     3     4   ar
     7     3    24    1
     8     4     5   ar
     9     4    25    1
    10     5     6    1
    11     5    18   ar
    12     6     7    1
    13     7     8    2
    14     7     9    1
    15     9    10   ar
    16    10    11   ar
    17    10    26    1
    18    11    12   ar
    19    11    27    1
    20    12    13   ar
    21    12    28    1
    22    13    14    1
    23    13    17   ar
    24    14    15    2
    25    14    16    1
    26    17     9   ar
    27    17    29    1
    28    18    19   ar
    29    18    30    1
    30    19    20    1
    31    19     2   ar
    32    20    31    1
    33    20    32    1
    34    20    33    1
    35    16    34    1
@<TRIPOS>MOLECULE
*****
 34 35 0 0 0
SMALL
GASTEIGER

@<TRIPOS>ATOM
      1 C          -5.0442    0.7888   -1.8386 C.3     1  UNL11      -0.0395
      2 C          -3.6611    0.4825   -1.3995 C.ar    1  UNL11      -0.0473
      3 C          -2.6489    0.3071   -2.3302 C.ar    1  UNL11      -0.0551
      4 C          -1.3655    0.0228   -1.9185 C.ar    1  UNL11      -0.0190
      5 C          -1.0315   -0.0992   -0.5774 C.ar    1  UNL11       0.1322
      6 O           0.2777   -0.3849   -0.2681 O.3     1  UNL11      -0.4223
      7 C           0.9405    0.0036    0.8629 C.2     1  UNL11       0.3445
      8 O           0.4958   -0.3877    1.9720 O.2     1  UNL11      -0.2445
      9 C           2.1319    0.8441    0.8648 C.ar    1  UNL11       0.0616
     10 C           2.7539    1.2026    2.0421 C.ar    1  UNL11      -0.0476
     11 C           3.8736    1.9893    2.0902 C.ar    1  UNL11      -0.0588
     12 C           4.4215    2.4547    0.9362 C.ar    1  UNL11      -0.0316
     13 C           3.8362    2.1245   -0.2761 C.ar    1  UNL11       0.1224
     14 N           4.4225    2.6190   -1.4595 N.4     1  UNL11       0.0060
     15 O           3.9283    2.3631   -2.5569 O.2     1  UNL11      -0.1300
     16 O           5.5454    3.3859   -1.3791 O.2     1  UNL11      -0.3961
     17 C           2.6967    1.3219   -0.2966 C.ar    1  UNL11      -0.0176
     18 C          -2.0292    0.0734    0.3473 C.ar    1  UNL11      -0.0161
     19 C          -3.3137    0.3581   -0.0687 C.ar    1  UNL11      -0.0441
     20 C          -4.3513    0.5344    0.9739 C.3     1  UNL11      -0.0393
     21 H          -4.9939    1.1314   -2.8994 H       1  UNL11       0.0278
     22 H          -5.4892    1.6462   -1.2782 H       1  UNL11       0.0278
     23 H          -5.7093   -0.0916   -1.8328 H       1  UNL11       0.0278
     24 H          -2.9265    0.4056   -3.3699 H       1  UNL11       0.0621
     25 H          -0.5764   -0.1128   -2.6753 H       1  UNL11       0.0654
     26 H           2.3406    0.8472    2.9751 H       1  UNL11       0.0626
     27 H           4.3051    2.2273    3.0639 H       1  UNL11       0.0618
     28 H           5.3061    3.0747    0.9984 H       1  UNL11       0.0640
     29 H           2.2300    1.0564   -1.2303 H       1  UNL11       0.0648
     30 H          -1.7629   -0.0234    1.4036 H       1  UNL11       0.0657
     31 H          -4.1007    1.3977    1.6457 H       1  UNL11       0.0278
     32 H          -5.3408    0.7582    0.5521 H       1  UNL11       0.0278
     33 H          -4.4567   -0.4052    1.5561 H       1  UNL11       0.0278
     34 H           5.9211    3.5803   -0.5431 H       1  UNL11       0.3292
@<TRIPOS>BOND
     1     1     2    1
     2     1    21    1
     3     1    22    1
     4     1    23    1
     5     2     3   ar
     6     3     4   ar
     7     3    24    1
     8     4     5   ar
     9     4    25    1
    10     5     6    1
    11     5    18   ar
    12     6     7    1
    13     7     8    2
    14     7     9    1
    15     9    10   ar
    16    10    11   ar
    17    10    26    1
    18    11    12   ar
    19    11    27    1
    20    12    13   ar
    21    12    28    1
    22    13    14    1
    23    13    17   ar
    24    14    15    2
    25    14    16    1
    26    17     9   ar
    27    17    29    1
    28    18    19   ar
    29    18    30    1
    30    19    20    1
    31    19     2   ar
    32    20    31    1
    33    20    32    1
    34    20    33    1
    35    16    34    1
