@<TRIPOS>MOLECULE
*****
 33 35 0 0 0
SMALL
GASTEIGER

@<TRIPOS>ATOM
      1 O          -3.7366   -1.9492   -1.6933 O.2     1  UNL11      -0.2116
      2 C          -2.8186   -1.1387   -1.4423 C.2     1  UNL11       0.4383
      3 N          -1.9336   -1.3256   -0.4501 N.am    1  UNL11      -0.0356
      4 N          -0.9766   -0.4479   -0.2117 N.2     1  UNL11      -0.0073
      5 C          -0.8219    0.6954   -0.9462 C.2     1  UNL11       0.1192
      6 C           0.2228    1.6407   -0.5611 C.3     1  UNL11       0.0211
      7 C           1.4143    0.9833    0.0994 C.ar    1  UNL11      -0.0392
      8 C           2.5029    1.6348    0.5584 C.ar    1  UNL11      -0.0581
      9 C           3.5466    0.9259    1.1606 C.ar    1  UNL11      -0.0593
     10 C           3.4739   -0.4406    1.2899 C.ar    1  UNL11      -0.0316
     11 C           2.3828   -1.1273    0.8329 C.ar    1  UNL11       0.1219
     12 N           2.3012   -2.5603    0.9615 N.4     1  UNL11       0.0060
     13 O           1.6613   -3.1734    0.0938 O.2     1  UNL11      -0.1300
     14 O           2.8807   -3.2636    1.9749 O.2     1  UNL11      -0.3961
     15 C           1.3711   -0.4132    0.2466 C.ar    1  UNL11      -0.0281
     16 C          -1.7111    0.9006   -1.9601 C.ar    1  UNL11       0.0192
     17 C          -1.5957    2.0264   -2.7546 C.ar    1  UNL11      -0.0518
     18 C          -2.4610    2.2668   -3.7976 C.ar    1  UNL11      -0.0611
     19 C          -3.4714    1.3697   -4.0669 C.ar    1  UNL11      -0.0608
     20 C          -3.5872    0.2383   -3.2718 C.ar    1  UNL11      -0.0441
     21 C          -2.7310   -0.0155   -2.2283 C.ar    1  UNL11       0.1004
     22 H          -2.0397   -2.2038    0.1269 H       1  UNL11       0.4829
     23 H           0.6490    2.0832   -1.5104 H       1  UNL11       0.0379
     24 H          -0.1204    2.5282    0.0060 H       1  UNL11       0.0379
     25 H           2.6121    2.6919    0.4714 H       1  UNL11       0.0620
     26 H           4.4172    1.4477    1.5271 H       1  UNL11       0.0618
     27 H           4.2759   -1.0284    1.7571 H       1  UNL11       0.0640
     28 H           0.4957   -0.9363   -0.1241 H       1  UNL11       0.0643
     29 H          -0.7731    2.6884   -2.5193 H       1  UNL11       0.0624
     30 H          -2.3132    3.1699   -4.3787 H       1  UNL11       0.0618
     31 H          -4.1395    1.5764   -4.8885 H       1  UNL11       0.0618
     32 H          -4.3647   -0.4865   -3.4526 H       1  UNL11       0.0627
     33 H           3.3673   -2.8148    2.6381 H       1  UNL11       0.3292
@<TRIPOS>BOND
     1     1     2    2
     2     2     3   am
     3     3     4    1
     4     3    22    1
     5     4     5    2
     6     5     6    1
     7     5    16    1
     8     6     7    1
     9     6    23    1
    10     6    24    1
    11     7     8   ar
    12     8     9   ar
    13     8    25    1
    14     9    10   ar
    15     9    26    1
    16    10    11   ar
    17    10    27    1
    18    11    12    1
    19    11    15   ar
    20    12    13    2
    21    12    14    1
    22    15     7   ar
    23    15    28    1
    24    16    17   ar
    25    17    18   ar
    26    17    29    1
    27    18    19   ar
    28    18    30    1
    29    19    20   ar
    30    19    31    1
    31    20    21   ar
    32    20    32    1
    33    21     2    1
    34    21    16   ar
    35    14    33    1
@<TRIPOS>MOLECULE
*****
 33 35 0 0 0
SMALL
GASTEIGER

@<TRIPOS>ATOM
      1 O          -3.7306   -1.7233   -2.2642 O.2     1  UNL11      -0.2116
      2 C          -2.8361   -0.9491   -1.8602 C.2     1  UNL11       0.4383
      3 N          -2.9076    0.3840   -2.0041 N.am    1  UNL11      -0.0356
      4 N          -1.9435    1.1726   -1.5664 N.2     1  UNL11      -0.0073
      5 C          -0.8219    0.6954   -0.9462 C.2     1  UNL11       0.1192
      6 C           0.2228    1.6407   -0.5611 C.3     1  UNL11       0.0211
      7 C           1.4143    0.9833    0.0994 C.ar    1  UNL11      -0.0392
      8 C           1.3673   -0.1487    0.8319 C.ar    1  UNL11      -0.0581
      9 C           2.5351   -0.6743    1.3926 C.ar    1  UNL11      -0.0593
     10 C           3.7412   -0.0427    1.2036 C.ar    1  UNL11      -0.0316
     11 C           3.8186    1.1067    0.4663 C.ar    1  UNL11       0.1219
     12 N           5.0790    1.7765    0.2670 N.4     1  UNL11       0.0060
     13 O           6.0820    1.2678    0.7898 O.2     1  UNL11      -0.1300
     14 O           5.2204    2.9245   -0.4537 O.2     1  UNL11      -0.3961
     15 C           2.6624    1.6043   -0.0747 C.ar    1  UNL11      -0.0281
     16 C          -0.7334   -0.6568   -0.7894 C.ar    1  UNL11       0.0192
     17 C           0.3650   -1.2015   -0.1501 C.ar    1  UNL11      -0.0518
     18 C           0.4893   -2.5585    0.0433 C.ar    1  UNL11      -0.0611
     19 C          -0.4998   -3.4056   -0.4063 C.ar    1  UNL11      -0.0608
     20 C          -1.6039   -2.8602   -1.0462 C.ar    1  UNL11      -0.0441
     21 C          -1.7422   -1.5085   -1.2458 C.ar    1  UNL11       0.1004
     22 H          -3.7676    0.7684   -2.4817 H       1  UNL11       0.4829
     23 H           0.6490    2.0832   -1.5104 H       1  UNL11       0.0379
     24 H          -0.1204    2.5282    0.0060 H       1  UNL11       0.0379
     25 H           0.4552   -0.6690    1.0171 H       1  UNL11       0.0620
     26 H           2.4966   -1.5795    1.9788 H       1  UNL11       0.0618
     27 H           4.6775   -0.4280    1.6302 H       1  UNL11       0.0640
     28 H           2.6989    2.5155   -0.6629 H       1  UNL11       0.0643
     29 H           1.1029   -0.4950    0.2059 H       1  UNL11       0.0624
     30 H           1.3774   -2.9171    0.5511 H       1  UNL11       0.0618
     31 H          -0.3835   -4.4661   -0.2453 H       1  UNL11       0.0618
     32 H          -2.3983   -3.4914   -1.4110 H       1  UNL11       0.0627
     33 H           4.4722    3.3210   -0.8548 H       1  UNL11       0.3292
@<TRIPOS>BOND
     1     1     2    2
     2     2     3   am
     3     3     4    1
     4     3    22    1
     5     4     5    2
     6     5     6    1
     7     5    16    1
     8     6     7    1
     9     6    23    1
    10     6    24    1
    11     7     8   ar
    12     8     9   ar
    13     8    25    1
    14     9    10   ar
    15     9    26    1
    16    10    11   ar
    17    10    27    1
    18    11    12    1
    19    11    15   ar
    20    12    13    2
    21    12    14    1
    22    15     7   ar
    23    15    28    1
    24    16    17   ar
    25    17    18   ar
    26    17    29    1
    27    18    19   ar
    28    18    30    1
    29    19    20   ar
    30    19    31    1
    31    20    21   ar
    32    20    32    1
    33    21     2    1
    34    21    16   ar
    35    14    33    1
@<TRIPOS>MOLECULE
*****
 33 35 0 0 0
SMALL
GASTEIGER

@<TRIPOS>ATOM
      1 O          -3.4656   -2.1244   -1.9986 O.2     1  UNL11      -0.2116
      2 C          -2.6242   -1.2545   -1.6856 C.2     1  UNL11       0.4383
      3 N          -1.3733   -1.2427   -2.1734 N.am    1  UNL11      -0.0356
      4 N          -0.5093   -0.3091   -1.8202 N.2     1  UNL11      -0.0073
      5 C          -0.8219    0.6954   -0.9462 C.2     1  UNL11       0.1192
      6 C           0.2228    1.6407   -0.5611 C.3     1  UNL11       0.0211
      7 C           1.4143    0.9833    0.0994 C.ar    1  UNL11      -0.0392
      8 C           1.5404   -0.3401    0.3291 C.ar    1  UNL11      -0.0581
      9 C           2.6919   -0.8424    0.9423 C.ar    1  UNL11      -0.0593
     10 C           3.7056    0.0069    1.3173 C.ar    1  UNL11      -0.0316
     11 C           3.6046    1.3531    1.0976 C.ar    1  UNL11       0.1219
     12 N           4.6616    2.2501    1.4914 N.4     1  UNL11       0.0060
     13 O           5.3480    1.9243    2.4716 O.2     1  UNL11      -0.1300
     14 O           4.9377    3.4215    0.8519 O.2     1  UNL11      -0.3961
     15 C           2.4680    1.8242    0.4948 C.ar    1  UNL11      -0.0281
     16 C          -2.0895    0.7003   -0.4422 C.ar    1  UNL11       0.0192
     17 C          -2.4758    1.7020    0.4292 C.ar    1  UNL11      -0.0518
     18 C          -3.7484    1.7552    0.9508 C.ar    1  UNL11      -0.0611
     19 C          -4.6698    0.7919    0.6024 C.ar    1  UNL11      -0.0608
     20 C          -4.2841   -0.2128   -0.2738 C.ar    1  UNL11      -0.0441
     21 C          -3.0184   -0.2786   -0.8028 C.ar    1  UNL11       0.1004
     22 H          -1.1159   -2.0122   -2.8494 H       1  UNL11       0.4829
     23 H           0.6490    2.0832   -1.5104 H       1  UNL11       0.0379
     24 H          -0.1204    2.5282    0.0060 H       1  UNL11       0.0379
     25 H           0.7778   -1.0381    0.0677 H       1  UNL11       0.0620
     26 H           2.7919   -1.9011    1.1262 H       1  UNL11       0.0618
     27 H           4.6233   -0.3540    1.8016 H       1  UNL11       0.0640
     28 H           2.3650    2.8887    0.3108 H       1  UNL11       0.0643
     29 H          -1.7255    2.4482    0.6539 H       1  UNL11       0.0624
     30 H          -3.9828    2.5676    1.6292 H       1  UNL11       0.0618
     31 H          -5.6619    0.8509    1.0222 H       1  UNL11       0.0618
     32 H          -4.9777   -0.9834   -0.5700 H       1  UNL11       0.0627
     33 H           4.4282    3.6816    0.1098 H       1  UNL11       0.3292
@<TRIPOS>BOND
     1     1     2    2
     2     2     3   am
     3     3     4    1
     4     3    22    1
     5     4     5    2
     6     5     6    1
     7     5    16    1
     8     6     7    1
     9     6    23    1
    10     6    24    1
    11     7     8   ar
    12     8     9   ar
    13     8    25    1
    14     9    10   ar
    15     9    26    1
    16    10    11   ar
    17    10    27    1
    18    11    12    1
    19    11    15   ar
    20    12    13    2
    21    12    14    1
    22    15     7   ar
    23    15    28    1
    24    16    17   ar
    25    17    18   ar
    26    17    29    1
    27    18    19   ar
    28    18    30    1
    29    19    20   ar
    30    19    31    1
    31    20    21   ar
    32    20    32    1
    33    21     2    1
    34    21    16   ar
    35    14    33    1
@<TRIPOS>MOLECULE
*****
 33 35 0 0 0
SMALL
GASTEIGER

@<TRIPOS>ATOM
      1 O          -3.8385   -1.8198   -1.7345 O.2     1  UNL11      -0.2116
      2 C          -2.8978   -1.0420   -1.4649 C.2     1  UNL11       0.4383
      3 N          -2.4170   -0.8846   -0.2212 N.am    1  UNL11      -0.0356
      4 N          -1.4225   -0.0529    0.0284 N.2     1  UNL11      -0.0073
      5 C          -0.8219    0.6954   -0.9462 C.2     1  UNL11       0.1192
      6 C           0.2228    1.6407   -0.5611 C.3     1  UNL11       0.0211
      7 C           1.4143    0.9833    0.0994 C.ar    1  UNL11      -0.0392
      8 C           2.2009    1.5617    1.0305 C.ar    1  UNL11      -0.0581
      9 C           3.2752    0.8572    1.5816 C.ar    1  UNL11      -0.0593
     10 C           3.5406   -0.4303    1.1798 C.ar    1  UNL11      -0.0316
     11 C           2.7605   -1.0414    0.2371 C.ar    1  UNL11       0.1219
     12 N           3.0348   -2.3896   -0.1919 N.4     1  UNL11       0.0060
     13 O           2.7341   -2.6875   -1.3577 O.2     1  UNL11      -0.1300
     14 O           3.5967   -3.3390    0.6083 O.2     1  UNL11      -0.3961
     15 C           1.7125   -0.3333   -0.2896 C.ar    1  UNL11      -0.0281
     16 C          -1.2962    0.5465   -2.2165 C.ar    1  UNL11       0.0192
     17 C          -0.7172    1.2578   -3.2512 C.ar    1  UNL11      -0.0518
     18 C          -1.1532    1.1281   -4.5503 C.ar    1  UNL11      -0.0611
     19 C          -2.1917    0.2702   -4.8393 C.ar    1  UNL11      -0.0608
     20 C          -2.7724   -0.4461   -3.8022 C.ar    1  UNL11      -0.0441
     21 C          -2.3478   -0.3277   -2.5014 C.ar    1  UNL11       0.1004
     22 H          -2.8705   -1.4552    0.5431 H       1  UNL11       0.4829
     23 H           0.6490    2.0832   -1.5104 H       1  UNL11       0.0379
     24 H          -0.1204    2.5282    0.0060 H       1  UNL11       0.0379
     25 H           2.0437    2.5613    1.3667 H       1  UNL11       0.0620
     26 H           3.9043    1.3206    2.3260 H       1  UNL11       0.0618
     27 H           4.3766   -1.0121    1.5916 H       1  UNL11       0.0640
     28 H           1.0800   -0.7971   -1.0396 H       1  UNL11       0.0643
     29 H           0.1096    1.9000   -2.9786 H       1  UNL11       0.0624
     30 H          -0.6546    1.7170   -5.3117 H       1  UNL11       0.0618
     31 H          -2.5191    0.1829   -5.8636 H       1  UNL11       0.0618
     32 H          -3.5867   -1.1275   -3.9898 H       1  UNL11       0.0627
     33 H           3.8294   -3.1294    1.4914 H       1  UNL11       0.3292
@<TRIPOS>BOND
     1     1     2    2
     2     2     3   am
     3     3     4    1
     4     3    22    1
     5     4     5    2
     6     5     6    1
     7     5    16    1
     8     6     7    1
     9     6    23    1
    10     6    24    1
    11     7     8   ar
    12     8     9   ar
    13     8    25    1
    14     9    10   ar
    15     9    26    1
    16    10    11   ar
    17    10    27    1
    18    11    12    1
    19    11    15   ar
    20    12    13    2
    21    12    14    1
    22    15     7   ar
    23    15    28    1
    24    16    17   ar
    25    17    18   ar
    26    17    29    1
    27    18    19   ar
    28    18    30    1
    29    19    20   ar
    30    19    31    1
    31    20    21   ar
    32    20    32    1
    33    21     2    1
    34    21    16   ar
    35    14    33    1
@<TRIPOS>MOLECULE
*****
 33 35 0 0 0
SMALL
GASTEIGER

@<TRIPOS>ATOM
      1 O          -3.5199   -1.9556   -2.2656 O.2     1  UNL11      -0.2116
      2 C          -2.6758   -1.1195   -1.8768 C.2     1  UNL11       0.4383
      3 N          -2.0592   -0.2661   -2.7100 N.am    1  UNL11      -0.0356
      4 N          -1.1713    0.6038   -2.2653 N.2     1  UNL11      -0.0073
      5 C          -0.8219    0.6954   -0.9462 C.2     1  UNL11       0.1192
      6 C           0.2228    1.6407   -0.5611 C.3     1  UNL11       0.0211
      7 C           1.4143    0.9833    0.0994 C.ar    1  UNL11      -0.0392
      8 C           2.2009    1.5617    1.0305 C.ar    1  UNL11      -0.0581
      9 C           3.2752    0.8572    1.5816 C.ar    1  UNL11      -0.0593
     10 C           3.5406   -0.4303    1.1798 C.ar    1  UNL11      -0.0316
     11 C           2.7605   -1.0414    0.2371 C.ar    1  UNL11       0.1219
     12 N           3.0348   -2.3896   -0.1919 N.4     1  UNL11       0.0060
     13 O           2.2920   -2.8721   -1.0600 O.2     1  UNL11      -0.1300
     14 O           4.0521   -3.1493    0.3034 O.2     1  UNL11      -0.3961
     15 C           1.7125   -0.3333   -0.2896 C.ar    1  UNL11      -0.0281
     16 C          -1.4402   -0.1628   -0.0848 C.ar    1  UNL11       0.0192
     17 C          -1.1479   -0.1062    1.2655 C.ar    1  UNL11      -0.0518
     18 C          -1.7582   -0.9422    2.1728 C.ar    1  UNL11      -0.0611
     19 C          -2.6861   -1.8623    1.7364 C.ar    1  UNL11      -0.0608
     20 C          -2.9821   -1.9188    0.3818 C.ar    1  UNL11      -0.0441
     21 C          -2.3821   -1.0909   -0.5351 C.ar    1  UNL11       0.1004
     22 H          -2.3177   -0.3244   -3.7323 H       1  UNL11       0.4829
     23 H           0.6490    2.0832   -1.5104 H       1  UNL11       0.0379
     24 H          -0.1204    2.5282    0.0060 H       1  UNL11       0.0379
     25 H           2.0437    2.5613    1.3667 H       1  UNL11       0.0620
     26 H           3.9043    1.3206    2.3260 H       1  UNL11       0.0618
     27 H           4.3766   -1.0121    1.5916 H       1  UNL11       0.0640
     28 H           1.0800   -0.7971   -1.0396 H       1  UNL11       0.0643
     29 H          -0.4315    0.6479    1.5627 H       1  UNL11       0.0624
     30 H          -1.4805   -0.8443    3.2161 H       1  UNL11       0.0618
     31 H          -3.1530   -2.5088    2.4631 H       1  UNL11       0.0618
     32 H          -3.7034   -2.6252    0.0031 H       1  UNL11       0.0627
     33 H           4.6218   -2.7990    0.9596 H       1  UNL11       0.3292
@<TRIPOS>BOND
     1     1     2    2
     2     2     3   am
     3     3     4    1
     4     3    22    1
     5     4     5    2
     6     5     6    1
     7     5    16    1
     8     6     7    1
     9     6    23    1
    10     6    24    1
    11     7     8   ar
    12     8     9   ar
    13     8    25    1
    14     9    10   ar
    15     9    26    1
    16    10    11   ar
    17    10    27    1
    18    11    12    1
    19    11    15   ar
    20    12    13    2
    21    12    14    1
    22    15     7   ar
    23    15    28    1
    24    16    17   ar
    25    17    18   ar
    26    17    29    1
    27    18    19   ar
    28    18    30    1
    29    19    20   ar
    30    19    31    1
    31    20    21   ar
    32    20    32    1
    33    21     2    1
    34    21    16   ar
    35    14    33    1
@<TRIPOS>MOLECULE
*****
 33 35 0 0 0
SMALL
GASTEIGER

@<TRIPOS>ATOM
      1 O          -3.5243   -2.1211   -1.8474 O.2     1  UNL11      -0.2116
      2 C          -2.6630   -1.2584   -1.5706 C.2     1  UNL11       0.4383
      3 N          -1.3457   -1.5184   -1.5716 N.am    1  UNL11      -0.0356
      4 N          -0.4629   -0.5832   -1.2730 N.2     1  UNL11      -0.0073
      5 C          -0.8219    0.6954   -0.9462 C.2     1  UNL11       0.1192
      6 C           0.2228    1.6407   -0.5611 C.3     1  UNL11       0.0211
      7 C           1.4143    0.9833    0.0994 C.ar    1  UNL11      -0.0392
      8 C           1.5495    0.7786    1.4260 C.ar    1  UNL11      -0.0581
      9 C           2.6937    0.1526    1.9295 C.ar    1  UNL11      -0.0593
     10 C           3.6913   -0.2592    1.0782 C.ar    1  UNL11      -0.0316
     11 C           3.5815   -0.0639   -0.2711 C.ar    1  UNL11       0.1219
     12 N           4.6250   -0.4895   -1.1693 N.4     1  UNL11       0.0060
     13 O           4.7812    0.1661   -2.2105 O.2     1  UNL11      -0.1300
     14 O           5.4336   -1.5615   -0.9364 O.2     1  UNL11      -0.3961
     15 C           2.4518    0.5509   -0.7433 C.ar    1  UNL11      -0.0281
     16 C          -2.1564    0.9781   -0.9423 C.ar    1  UNL11       0.0192
     17 C          -2.5841    2.2583   -0.6423 C.ar    1  UNL11      -0.0518
     18 C          -3.9194    2.5925   -0.6407 C.ar    1  UNL11      -0.0611
     19 C          -4.8629    1.6357   -0.9451 C.ar    1  UNL11      -0.0608
     20 C          -4.4349    0.3510   -1.2485 C.ar    1  UNL11      -0.0441
     21 C          -3.1064    0.0028   -1.2549 C.ar    1  UNL11       0.1004
     22 H          -1.0520   -2.5016   -1.8215 H       1  UNL11       0.4829
     23 H           0.6490    2.0832   -1.5104 H       1  UNL11       0.0379
     24 H          -0.1204    2.5282    0.0060 H       1  UNL11       0.0379
     25 H           0.8098    1.0899    2.1281 H       1  UNL11       0.0620
     26 H           2.8014   -0.0104    2.9908 H       1  UNL11       0.0618
     27 H           4.6034   -0.7533    1.4401 H       1  UNL11       0.0640
     28 H           2.3426    0.7172   -1.8101 H       1  UNL11       0.0643
     29 H          -1.8056    2.9798   -0.4336 H       1  UNL11       0.0624
     30 H          -4.1840    3.6146   -0.3951 H       1  UNL11       0.0618
     31 H          -5.9043    1.9175   -0.9381 H       1  UNL11       0.0618
     32 H          -5.1438   -0.4240   -1.4924 H       1  UNL11       0.0627
     33 H           5.3281   -2.0668   -0.1544 H       1  UNL11       0.3292
@<TRIPOS>BOND
     1     1     2    2
     2     2     3   am
     3     3     4    1
     4     3    22    1
     5     4     5    2
     6     5     6    1
     7     5    16    1
     8     6     7    1
     9     6    23    1
    10     6    24    1
    11     7     8   ar
    12     8     9   ar
    13     8    25    1
    14     9    10   ar
    15     9    26    1
    16    10    11   ar
    17    10    27    1
    18    11    12    1
    19    11    15   ar
    20    12    13    2
    21    12    14    1
    22    15     7   ar
    23    15    28    1
    24    16    17   ar
    25    17    18   ar
    26    17    29    1
    27    18    19   ar
    28    18    30    1
    29    19    20   ar
    30    19    31    1
    31    20    21   ar
    32    20    32    1
    33    21     2    1
    34    21    16   ar
    35    14    33    1
@<TRIPOS>MOLECULE
*****
 33 35 0 0 0
SMALL
GASTEIGER

@<TRIPOS>ATOM
      1 O          -3.8916   -1.6547   -1.9958 O.2     1  UNL11      -0.2116
      2 C          -2.9483   -0.9099   -1.6521 C.2     1  UNL11       0.4383
      3 N          -3.0884    0.0714   -0.7464 N.am    1  UNL11      -0.0356
      4 N          -2.0705    0.8407   -0.4073 N.2     1  UNL11      -0.0073
      5 C          -0.8219    0.6954   -0.9462 C.2     1  UNL11       0.1192
      6 C           0.2228    1.6407   -0.5611 C.3     1  UNL11       0.0211
      7 C           1.4143    0.9833    0.0994 C.ar    1  UNL11      -0.0392
      8 C           1.5495    0.7786    1.4260 C.ar    1  UNL11      -0.0581
      9 C           2.6937    0.1526    1.9295 C.ar    1  UNL11      -0.0593
     10 C           3.6913   -0.2592    1.0782 C.ar    1  UNL11      -0.0316
     11 C           3.5815   -0.0639   -0.2711 C.ar    1  UNL11       0.1219
     12 N           4.6250   -0.4895   -1.1693 N.4     1  UNL11       0.0060
     13 O           4.2871   -0.8269   -2.3140 O.2     1  UNL11      -0.1300
     14 O           5.9433   -0.5414   -0.8277 O.2     1  UNL11      -0.3961
     15 C           2.4518    0.5509   -0.7433 C.ar    1  UNL11      -0.0281
     16 C          -0.6607   -0.2984   -1.8667 C.ar    1  UNL11       0.0192
     17 C           0.5827   -0.5122   -2.4326 C.ar    1  UNL11      -0.0518
     18 C           0.7951   -1.5123   -3.3541 C.ar    1  UNL11      -0.0611
     19 C          -0.2500   -2.3280   -3.7293 C.ar    1  UNL11      -0.0608
     20 C          -1.4979   -2.1160   -3.1604 C.ar    1  UNL11      -0.0441
     21 C          -1.7249   -1.1229   -2.2394 C.ar    1  UNL11       0.1004
     22 H          -4.0469    0.1970   -0.3211 H       1  UNL11       0.4829
     23 H           0.6490    2.0832   -1.5104 H       1  UNL11       0.0379
     24 H          -0.1204    2.5282    0.0060 H       1  UNL11       0.0379
     25 H           0.8098    1.0899    2.1281 H       1  UNL11       0.0620
     26 H           2.8014   -0.0104    2.9908 H       1  UNL11       0.0618
     27 H           4.6034   -0.7533    1.4401 H       1  UNL11       0.0640
     28 H           2.3426    0.7172   -1.8101 H       1  UNL11       0.0643
     29 H           1.3763    0.1377   -2.0890 H       1  UNL11       0.0624
     30 H           1.7948   -1.6228   -3.7583 H       1  UNL11       0.0618
     31 H          -0.0632   -3.1059   -4.4532 H       1  UNL11       0.0618
     32 H          -2.3393   -2.7346   -3.4288 H       1  UNL11       0.0627
     33 H           6.2144   -0.2898    0.0332 H       1  UNL11       0.3292
@<TRIPOS>BOND
     1     1     2    2
     2     2     3   am
     3     3     4    1
     4     3    22    1
     5     4     5    2
     6     5     6    1
     7     5    16    1
     8     6     7    1
     9     6    23    1
    10     6    24    1
    11     7     8   ar
    12     8     9   ar
    13     8    25    1
    14     9    10   ar
    15     9    26    1
    16    10    11   ar
    17    10    27    1
    18    11    12    1
    19    11    15   ar
    20    12    13    2
    21    12    14    1
    22    15     7   ar
    23    15    28    1
    24    16    17   ar
    25    17    18   ar
    26    17    29    1
    27    18    19   ar
    28    18    30    1
    29    19    20   ar
    30    19    31    1
    31    20    21   ar
    32    20    32    1
    33    21     2    1
    34    21    16   ar
    35    14    33    1
@<TRIPOS>MOLECULE
*****
 33 35 0 0 0
SMALL
GASTEIGER

@<TRIPOS>ATOM
      1 O          -3.8342   -1.6564   -2.1475 O.2     1  UNL11      -0.2116
      2 C          -2.9105   -0.9048   -1.7673 C.2     1  UNL11       0.4383
      3 N          -3.1217    0.3523   -1.3455 N.am    1  UNL11      -0.0356
      4 N          -2.1221    1.1196   -0.9517 N.2     1  UNL11      -0.0073
      5 C          -0.8219    0.6954   -0.9462 C.2     1  UNL11       0.1192
      6 C           0.2228    1.6407   -0.5611 C.3     1  UNL11       0.0211
      7 C           1.4143    0.9833    0.0994 C.ar    1  UNL11      -0.0392
      8 C           1.5495    0.7786    1.4260 C.ar    1  UNL11      -0.0581
      9 C           2.6937    0.1526    1.9295 C.ar    1  UNL11      -0.0593
     10 C           3.6913   -0.2592    1.0782 C.ar    1  UNL11      -0.0316
     11 C           3.5815   -0.0639   -0.2711 C.ar    1  UNL11       0.1219
     12 N           4.6250   -0.4895   -1.1693 N.4     1  UNL11       0.0060
     13 O           4.7812    0.1661   -2.2105 O.2     1  UNL11      -0.1300
     14 O           5.4336   -1.5615   -0.9364 O.2     1  UNL11      -0.3961
     15 C           2.4518    0.5509   -0.7433 C.ar    1  UNL11      -0.0281
     16 C          -0.5889   -0.5802   -1.3696 C.ar    1  UNL11       0.0192
     17 C           0.7014   -1.0775   -1.3669 C.ar    1  UNL11      -0.0518
     18 C           0.9814   -2.3630   -1.7714 C.ar    1  UNL11      -0.0611
     19 C          -0.0418   -3.1848   -2.1909 C.ar    1  UNL11      -0.0608
     20 C          -1.3375   -2.6878   -2.1919 C.ar    1  UNL11      -0.0441
     21 C          -1.6324   -1.4079   -1.7906 C.ar    1  UNL11       0.1004
     22 H          -4.1206    0.6952   -1.3442 H       1  UNL11       0.4829
     23 H           0.6490    2.0832   -1.5104 H       1  UNL11       0.0379
     24 H          -0.1204    2.5282    0.0060 H       1  UNL11       0.0379
     25 H           0.8098    1.0899    2.1281 H       1  UNL11       0.0620
     26 H           2.8014   -0.0104    2.9908 H       1  UNL11       0.0618
     27 H           4.6034   -0.7533    1.4401 H       1  UNL11       0.0640
     28 H           2.3426    0.7172   -1.8101 H       1  UNL11       0.0643
     29 H           1.4669   -0.4032   -1.0069 H       1  UNL11       0.0624
     30 H           2.0155   -2.6869   -1.7450 H       1  UNL11       0.0618
     31 H           0.1983   -4.1888   -2.5043 H       1  UNL11       0.0618
     32 H          -2.1640   -3.3015   -2.5127 H       1  UNL11       0.0627
     33 H           5.3281   -2.0668   -0.1544 H       1  UNL11       0.3292
@<TRIPOS>BOND
     1     1     2    2
     2     2     3   am
     3     3     4    1
     4     3    22    1
     5     4     5    2
     6     5     6    1
     7     5    16    1
     8     6     7    1
     9     6    23    1
    10     6    24    1
    11     7     8   ar
    12     8     9   ar
    13     8    25    1
    14     9    10   ar
    15     9    26    1
    16    10    11   ar
    17    10    27    1
    18    11    12    1
    19    11    15   ar
    20    12    13    2
    21    12    14    1
    22    15     7   ar
    23    15    28    1
    24    16    17   ar
    25    17    18   ar
    26    17    29    1
    27    18    19   ar
    28    18    30    1
    29    19    20   ar
    30    19    31    1
    31    20    21   ar
    32    20    32    1
    33    21     2    1
    34    21    16   ar
    35    14    33    1
@<TRIPOS>MOLECULE
*****
 33 35 0 0 0
SMALL
GASTEIGER

@<TRIPOS>ATOM
      1 O          -3.6172   -1.8320   -2.3050 O.2     1  UNL11      -0.2116
      2 C          -2.7514   -1.0272   -1.8984 C.2     1  UNL11       0.4383
      3 N          -2.5211    0.1553   -2.4912 N.am    1  UNL11      -0.0356
      4 N          -1.5974    0.9813   -2.0359 N.2     1  UNL11      -0.0073
      5 C          -0.8219    0.6954   -0.9462 C.2     1  UNL11       0.1192
      6 C           0.2228    1.6407   -0.5611 C.3     1  UNL11       0.0211
      7 C           1.4143    0.9833    0.0994 C.ar    1  UNL11      -0.0392
      8 C           2.6807    1.0309   -0.3634 C.ar    1  UNL11      -0.0581
      9 C           3.7101    0.3911    0.3333 C.ar    1  UNL11      -0.0593
     10 C           3.4417   -0.2927    1.4951 C.ar    1  UNL11      -0.0316
     11 C           2.1672   -0.3583    1.9872 C.ar    1  UNL11       0.1219
     12 N           1.8775   -1.0765    3.2026 N.4     1  UNL11       0.0060
     13 O           0.7541   -1.5920    3.3043 O.2     1  UNL11      -0.1300
     14 O           2.7620   -1.2124    4.2305 O.2     1  UNL11      -0.3961
     15 C           1.1735    0.2762    1.2892 C.ar    1  UNL11      -0.0281
     16 C          -1.0437   -0.5011   -0.3298 C.ar    1  UNL11       0.0192
     17 C          -0.3084   -0.8406    0.7909 C.ar    1  UNL11      -0.0518
     18 C          -0.5084   -2.0303    1.4535 C.ar    1  UNL11      -0.0611
     19 C          -1.4633   -2.9131    0.9983 C.ar    1  UNL11      -0.0608
     20 C          -2.2036   -2.5727   -0.1250 C.ar    1  UNL11      -0.0441
     21 C          -2.0159   -1.3893   -0.7961 C.ar    1  UNL11       0.1004
     22 H          -3.1116    0.3910   -3.3346 H       1  UNL11       0.4829
     23 H           0.6490    2.0832   -1.5104 H       1  UNL11       0.0379
     24 H          -0.1204    2.5282    0.0060 H       1  UNL11       0.0379
     25 H           2.9381    1.5381   -1.2653 H       1  UNL11       0.0620
     26 H           4.7227    0.4292   -0.0377 H       1  UNL11       0.0618
     27 H           4.2263   -0.8070    2.0669 H       1  UNL11       0.0640
     28 H           0.1543    0.2374    1.6598 H       1  UNL11       0.0643
     29 H           0.4120   -0.1055    1.1238 H       1  UNL11       0.0624
     30 H           0.1044   -2.2326    2.3245 H       1  UNL11       0.0618
     31 H          -1.6046   -3.8404    1.5313 H       1  UNL11       0.0618
     32 H          -2.9599   -3.2377   -0.5102 H       1  UNL11       0.0627
     33 H           3.6146   -0.8287    4.1688 H       1  UNL11       0.3292
@<TRIPOS>BOND
     1     1     2    2
     2     2     3   am
     3     3     4    1
     4     3    22    1
     5     4     5    2
     6     5     6    1
     7     5    16    1
     8     6     7    1
     9     6    23    1
    10     6    24    1
    11     7     8   ar
    12     8     9   ar
    13     8    25    1
    14     9    10   ar
    15     9    26    1
    16    10    11   ar
    17    10    27    1
    18    11    12    1
    19    11    15   ar
    20    12    13    2
    21    12    14    1
    22    15     7   ar
    23    15    28    1
    24    16    17   ar
    25    17    18   ar
    26    17    29    1
    27    18    19   ar
    28    18    30    1
    29    19    20   ar
    30    19    31    1
    31    20    21   ar
    32    20    32    1
    33    21     2    1
    34    21    16   ar
    35    14    33    1
@<TRIPOS>MOLECULE
*****
 33 35 0 0 0
SMALL
GASTEIGER

@<TRIPOS>ATOM
      1 O          -3.8342   -1.6564   -2.1475 O.2     1  UNL11      -0.2116
      2 C          -2.9105   -0.9048   -1.7673 C.2     1  UNL11       0.4383
      3 N          -3.1217    0.3523   -1.3455 N.am    1  UNL11      -0.0356
      4 N          -2.1221    1.1196   -0.9517 N.2     1  UNL11      -0.0073
      5 C          -0.8219    0.6954   -0.9462 C.2     1  UNL11       0.1192
      6 C           0.2228    1.6407   -0.5611 C.3     1  UNL11       0.0211
      7 C           1.4143    0.9833    0.0994 C.ar    1  UNL11      -0.0392
      8 C           1.5495    0.7786    1.4260 C.ar    1  UNL11      -0.0581
      9 C           2.6937    0.1526    1.9295 C.ar    1  UNL11      -0.0593
     10 C           3.6913   -0.2592    1.0782 C.ar    1  UNL11      -0.0316
     11 C           3.5815   -0.0639   -0.2711 C.ar    1  UNL11       0.1219
     12 N           4.6250   -0.4895   -1.1693 N.4     1  UNL11       0.0060
     13 O           5.3007   -1.4727   -0.8305 O.2     1  UNL11      -0.1300
     14 O           4.9033    0.1271   -2.3524 O.2     1  UNL11      -0.3961
     15 C           2.4518    0.5509   -0.7433 C.ar    1  UNL11      -0.0281
     16 C          -0.5889   -0.5802   -1.3696 C.ar    1  UNL11       0.0192
     17 C           0.7014   -1.0775   -1.3669 C.ar    1  UNL11      -0.0518
     18 C           0.9814   -2.3630   -1.7714 C.ar    1  UNL11      -0.0611
     19 C          -0.0418   -3.1848   -2.1909 C.ar    1  UNL11      -0.0608
     20 C          -1.3375   -2.6878   -2.1919 C.ar    1  UNL11      -0.0441
     21 C          -1.6324   -1.4079   -1.7906 C.ar    1  UNL11       0.1004
     22 H          -4.1206    0.6952   -1.3442 H       1  UNL11       0.4829
     23 H           0.6490    2.0832   -1.5104 H       1  UNL11       0.0379
     24 H          -0.1204    2.5282    0.0060 H       1  UNL11       0.0379
     25 H           0.8098    1.0899    2.1281 H       1  UNL11       0.0620
     26 H           2.8014   -0.0104    2.9908 H       1  UNL11       0.0618
     27 H           4.6034   -0.7533    1.4401 H       1  UNL11       0.0640
     28 H           2.3426    0.7172   -1.8101 H       1  UNL11       0.0643
     29 H           1.4669   -0.4032   -1.0069 H       1  UNL11       0.0624
     30 H           2.0155   -2.6869   -1.7450 H       1  UNL11       0.0618
     31 H           0.1983   -4.1888   -2.5043 H       1  UNL11       0.0618
     32 H          -2.1640   -3.3015   -2.5127 H       1  UNL11       0.0627
     33 H           4.4018    0.8711   -2.6224 H       1  UNL11       0.3292
@<TRIPOS>BOND
     1     1     2    2
     2     2     3   am
     3     3     4    1
     4     3    22    1
     5     4     5    2
     6     5     6    1
     7     5    16    1
     8     6     7    1
     9     6    23    1
    10     6    24    1
    11     7     8   ar
    12     8     9   ar
    13     8    25    1
    14     9    10   ar
    15     9    26    1
    16    10    11   ar
    17    10    27    1
    18    11    12    1
    19    11    15   ar
    20    12    13    2
    21    12    14    1
    22    15     7   ar
    23    15    28    1
    24    16    17   ar
    25    17    18   ar
    26    17    29    1
    27    18    19   ar
    28    18    30    1
    29    19    20   ar
    30    19    31    1
    31    20    21   ar
    32    20    32    1
    33    21     2    1
    34    21    16   ar
    35    14    33    1
@<TRIPOS>MOLECULE
*****
 33 35 0 0 0
SMALL
GASTEIGER

@<TRIPOS>ATOM
      1 O          -3.8385   -1.8198   -1.7345 O.2     1  UNL11      -0.2116
      2 C          -2.8978   -1.0420   -1.4649 C.2     1  UNL11       0.4383
      3 N          -2.4170   -0.8846   -0.2212 N.am    1  UNL11      -0.0356
      4 N          -1.4225   -0.0529    0.0284 N.2     1  UNL11      -0.0073
      5 C          -0.8219    0.6954   -0.9462 C.2     1  UNL11       0.1192
      6 C           0.2228    1.6407   -0.5611 C.3     1  UNL11       0.0211
      7 C           1.4143    0.9833    0.0994 C.ar    1  UNL11      -0.0392
      8 C           1.5404   -0.3401    0.3291 C.ar    1  UNL11      -0.0581
      9 C           2.6919   -0.8424    0.9423 C.ar    1  UNL11      -0.0593
     10 C           3.7056    0.0069    1.3173 C.ar    1  UNL11      -0.0316
     11 C           3.6046    1.3531    1.0976 C.ar    1  UNL11       0.1219
     12 N           4.6616    2.2501    1.4914 N.4     1  UNL11       0.0060
     13 O           5.6586    1.7504    2.0340 O.2     1  UNL11      -0.1300
     14 O           4.6190    3.5992    1.3026 O.2     1  UNL11      -0.3961
     15 C           2.4680    1.8242    0.4948 C.ar    1  UNL11      -0.0281
     16 C          -1.2962    0.5465   -2.2165 C.ar    1  UNL11       0.0192
     17 C          -0.7172    1.2578   -3.2512 C.ar    1  UNL11      -0.0518
     18 C          -1.1532    1.1281   -4.5503 C.ar    1  UNL11      -0.0611
     19 C          -2.1917    0.2702   -4.8393 C.ar    1  UNL11      -0.0608
     20 C          -2.7724   -0.4461   -3.8022 C.ar    1  UNL11      -0.0441
     21 C          -2.3478   -0.3277   -2.5014 C.ar    1  UNL11       0.1004
     22 H          -2.8705   -1.4552    0.5431 H       1  UNL11       0.4829
     23 H           0.6490    2.0832   -1.5104 H       1  UNL11       0.0379
     24 H          -0.1204    2.5282    0.0060 H       1  UNL11       0.0379
     25 H           0.7778   -1.0381    0.0677 H       1  UNL11       0.0620
     26 H           2.7919   -1.9011    1.1262 H       1  UNL11       0.0618
     27 H           4.6233   -0.3540    1.8016 H       1  UNL11       0.0640
     28 H           2.3650    2.8887    0.3108 H       1  UNL11       0.0643
     29 H           0.1096    1.9000   -2.9786 H       1  UNL11       0.0624
     30 H          -0.6546    1.7170   -5.3117 H       1  UNL11       0.0618
     31 H          -2.5191    0.1829   -5.8636 H       1  UNL11       0.0618
     32 H          -3.5867   -1.1275   -3.9898 H       1  UNL11       0.0627
     33 H           3.8727    3.9917    0.8941 H       1  UNL11       0.3292
@<TRIPOS>BOND
     1     1     2    2
     2     2     3   am
     3     3     4    1
     4     3    22    1
     5     4     5    2
     6     5     6    1
     7     5    16    1
     8     6     7    1
     9     6    23    1
    10     6    24    1
    11     7     8   ar
    12     8     9   ar
    13     8    25    1
    14     9    10   ar
    15     9    26    1
    16    10    11   ar
    17    10    27    1
    18    11    12    1
    19    11    15   ar
    20    12    13    2
    21    12    14    1
    22    15     7   ar
    23    15    28    1
    24    16    17   ar
    25    17    18   ar
    26    17    29    1
    27    18    19   ar
    28    18    30    1
    29    19    20   ar
    30    19    31    1
    31    20    21   ar
    32    20    32    1
    33    21     2    1
    34    21    16   ar
    35    14    33    1
@<TRIPOS>MOLECULE
*****
 33 35 0 0 0
SMALL
GASTEIGER

@<TRIPOS>ATOM
      1 O          -3.6172   -1.8320   -2.3050 O.2     1  UNL11      -0.2116
      2 C          -2.7514   -1.0272   -1.8984 C.2     1  UNL11       0.4383
      3 N          -2.5211    0.1553   -2.4912 N.am    1  UNL11      -0.0356
      4 N          -1.5974    0.9813   -2.0359 N.2     1  UNL11      -0.0073
      5 C          -0.8219    0.6954   -0.9462 C.2     1  UNL11       0.1192
      6 C           0.2228    1.6407   -0.5611 C.3     1  UNL11       0.0211
      7 C           1.4143    0.9833    0.0994 C.ar    1  UNL11      -0.0392
      8 C           2.6840    1.4344    0.0323 C.ar    1  UNL11      -0.0581
      9 C           3.7107    0.7500    0.6894 C.ar    1  UNL11      -0.0593
     10 C           3.4366   -0.3887    1.4089 C.ar    1  UNL11      -0.0316
     11 C           2.1589   -0.8695    1.4935 C.ar    1  UNL11       0.1219
     12 N           1.8643   -2.0647    2.2428 N.4     1  UNL11       0.0060
     13 O           2.8139   -2.6330    2.8029 O.2     1  UNL11      -0.1300
     14 O           0.6144   -2.5945    2.3621 O.2     1  UNL11      -0.3961
     15 C           1.1677   -0.1831    0.8426 C.ar    1  UNL11      -0.0281
     16 C          -1.0437   -0.5011   -0.3298 C.ar    1  UNL11       0.0192
     17 C          -0.3084   -0.8406    0.7909 C.ar    1  UNL11      -0.0518
     18 C          -0.5084   -2.0303    1.4535 C.ar    1  UNL11      -0.0611
     19 C          -1.4633   -2.9131    0.9983 C.ar    1  UNL11      -0.0608
     20 C          -2.2036   -2.5727   -0.1250 C.ar    1  UNL11      -0.0441
     21 C          -2.0159   -1.3893   -0.7961 C.ar    1  UNL11       0.1004
     22 H          -3.1116    0.3910   -3.3346 H       1  UNL11       0.4829
     23 H           0.6490    2.0832   -1.5104 H       1  UNL11       0.0379
     24 H          -0.1204    2.5282    0.0060 H       1  UNL11       0.0379
     25 H           2.9497    2.3056   -0.5221 H       1  UNL11       0.0620
     26 H           4.7262    1.1112    0.6349 H       1  UNL11       0.0618
     27 H           4.2191   -0.9510    1.9365 H       1  UNL11       0.0640
     28 H           0.1463   -0.5459    0.8948 H       1  UNL11       0.0643
     29 H           0.4120   -0.1055    1.1238 H       1  UNL11       0.0624
     30 H           0.1044   -2.2326    2.3245 H       1  UNL11       0.0618
     31 H          -1.6046   -3.8404    1.5313 H       1  UNL11       0.0618
     32 H          -2.9599   -3.2377   -0.5102 H       1  UNL11       0.0627
     33 H          -0.1133   -2.1768    1.9449 H       1  UNL11       0.3292
@<TRIPOS>BOND
     1     1     2    2
     2     2     3   am
     3     3     4    1
     4     3    22    1
     5     4     5    2
     6     5     6    1
     7     5    16    1
     8     6     7    1
     9     6    23    1
    10     6    24    1
    11     7     8   ar
    12     8     9   ar
    13     8    25    1
    14     9    10   ar
    15     9    26    1
    16    10    11   ar
    17    10    27    1
    18    11    12    1
    19    11    15   ar
    20    12    13    2
    21    12    14    1
    22    15     7   ar
    23    15    28    1
    24    16    17   ar
    25    17    18   ar
    26    17    29    1
    27    18    19   ar
    28    18    30    1
    29    19    20   ar
    30    19    31    1
    31    20    21   ar
    32    20    32    1
    33    21     2    1
    34    21    16   ar
    35    14    33    1
@<TRIPOS>MOLECULE
*****
 33 35 0 0 0
SMALL
GASTEIGER

@<TRIPOS>ATOM
      1 O          -3.8342   -1.6564   -2.1475 O.2     1  UNL11      -0.2116
      2 C          -2.9105   -0.9048   -1.7673 C.2     1  UNL11       0.4383
      3 N          -3.1217    0.3523   -1.3455 N.am    1  UNL11      -0.0356
      4 N          -2.1221    1.1196   -0.9517 N.2     1  UNL11      -0.0073
      5 C          -0.8219    0.6954   -0.9462 C.2     1  UNL11       0.1192
      6 C           0.2228    1.6407   -0.5611 C.3     1  UNL11       0.0211
      7 C           1.4143    0.9833    0.0994 C.ar    1  UNL11      -0.0392
      8 C           2.5056    0.5267   -0.5493 C.ar    1  UNL11      -0.0581
      9 C           3.5554   -0.0595    0.1638 C.ar    1  UNL11      -0.0593
     10 C           3.4854   -0.1768    1.5316 C.ar    1  UNL11      -0.0316
     11 C           2.3910    0.2764    2.2153 C.ar    1  UNL11       0.1219
     12 N           2.3088    0.1534    3.6488 N.4     1  UNL11       0.0060
     13 O           1.2796    0.5752    4.1975 O.2     1  UNL11      -0.1300
     14 O           3.2917   -0.3921    4.4193 O.2     1  UNL11      -0.3961
     15 C           1.3738    0.8481    1.4971 C.ar    1  UNL11      -0.0281
     16 C          -0.5889   -0.5802   -1.3696 C.ar    1  UNL11       0.0192
     17 C           0.7014   -1.0775   -1.3669 C.ar    1  UNL11      -0.0518
     18 C           0.9814   -2.3630   -1.7714 C.ar    1  UNL11      -0.0611
     19 C          -0.0418   -3.1848   -2.1909 C.ar    1  UNL11      -0.0608
     20 C          -1.3375   -2.6878   -2.1919 C.ar    1  UNL11      -0.0441
     21 C          -1.6324   -1.4079   -1.7906 C.ar    1  UNL11       0.1004
     22 H          -4.1206    0.6952   -1.3442 H       1  UNL11       0.4829
     23 H           0.6490    2.0832   -1.5104 H       1  UNL11       0.0379
     24 H          -0.1204    2.5282    0.0060 H       1  UNL11       0.0379
     25 H           2.6026    0.5839   -1.6096 H       1  UNL11       0.0620
     26 H           4.4278   -0.4249   -0.3558 H       1  UNL11       0.0618
     27 H           4.2917   -0.6325    2.1226 H       1  UNL11       0.0640
     28 H           0.4950    1.2144    2.0178 H       1  UNL11       0.0643
     29 H           1.4669   -0.4032   -1.0069 H       1  UNL11       0.0624
     30 H           2.0155   -2.6869   -1.7450 H       1  UNL11       0.0618
     31 H           0.1983   -4.1888   -2.5043 H       1  UNL11       0.0618
     32 H          -2.1640   -3.3015   -2.5127 H       1  UNL11       0.0627
     33 H           4.0752   -0.7152    4.0197 H       1  UNL11       0.3292
@<TRIPOS>BOND
     1     1     2    2
     2     2     3   am
     3     3     4    1
     4     3    22    1
     5     4     5    2
     6     5     6    1
     7     5    16    1
     8     6     7    1
     9     6    23    1
    10     6    24    1
    11     7     8   ar
    12     8     9   ar
    13     8    25    1
    14     9    10   ar
    15     9    26    1
    16    10    11   ar
    17    10    27    1
    18    11    12    1
    19    11    15   ar
    20    12    13    2
    21    12    14    1
    22    15     7   ar
    23    15    28    1
    24    16    17   ar
    25    17    18   ar
    26    17    29    1
    27    18    19   ar
    28    18    30    1
    29    19    20   ar
    30    19    31    1
    31    20    21   ar
    32    20    32    1
    33    21     2    1
    34    21    16   ar
    35    14    33    1
@<TRIPOS>MOLECULE
*****
 33 35 0 0 0
SMALL
GASTEIGER

@<TRIPOS>ATOM
      1 O          -3.4639   -2.0619   -2.1565 O.2     1  UNL11      -0.2116
      2 C          -2.6290   -1.2021   -1.8011 C.2     1  UNL11       0.4383
      3 N          -1.6426   -0.7700   -2.6031 N.am    1  UNL11      -0.0356
      4 N          -0.7767    0.1390   -2.1948 N.2     1  UNL11      -0.0073
      5 C          -0.8219    0.6954   -0.9462 C.2     1  UNL11       0.1192
      6 C           0.2228    1.6407   -0.5611 C.3     1  UNL11       0.0211
      7 C           1.4143    0.9833    0.0994 C.ar    1  UNL11      -0.0392
      8 C           1.8527    1.2490    1.3473 C.ar    1  UNL11      -0.0581
      9 C           2.9638    0.5748    1.8624 C.ar    1  UNL11      -0.0593
     10 C           3.6200   -0.3640    1.1025 C.ar    1  UNL11      -0.0316
     11 C           3.1983   -0.6531   -0.1661 C.ar    1  UNL11       0.1219
     12 N           3.8835   -1.6333   -0.9701 N.4     1  UNL11       0.0060
     13 O           3.2070   -2.2643   -1.7962 O.2     1  UNL11      -0.1300
     14 O           5.2162   -1.8989   -0.8672 O.2     1  UNL11      -0.3961
     15 C           2.1071    0.0188   -0.6511 C.ar    1  UNL11      -0.0281
     16 C          -1.8191    0.2697   -0.1185 C.ar    1  UNL11       0.0192
     17 C          -1.9337    0.8095    1.1494 C.ar    1  UNL11      -0.0518
     18 C          -2.9326    0.4210    2.0128 C.ar    1  UNL11      -0.0611
     19 C          -3.8481   -0.5285    1.6146 C.ar    1  UNL11      -0.0608
     20 C          -3.7357   -1.0695    0.3416 C.ar    1  UNL11      -0.0441
     21 C          -2.7450   -0.6914   -0.5311 C.ar    1  UNL11       0.1004
     22 H          -1.5937   -1.1904   -3.5707 H       1  UNL11       0.4829
     23 H           0.6490    2.0832   -1.5104 H       1  UNL11       0.0379
     24 H          -0.1204    2.5282    0.0060 H       1  UNL11       0.0379
     25 H           1.3855    1.9762    1.9717 H       1  UNL11       0.0620
     26 H           3.3142    0.7881    2.8606 H       1  UNL11       0.0618
     27 H           4.4962   -0.9116    1.4758 H       1  UNL11       0.0640
     28 H           1.7545   -0.1932   -1.6553 H       1  UNL11       0.0643
     29 H          -1.2068    1.5680    1.4074 H       1  UNL11       0.0624
     30 H          -2.9623    0.8845    2.9923 H       1  UNL11       0.0618
     31 H          -4.6233   -0.8198    2.3061 H       1  UNL11       0.0618
     32 H          -4.4339   -1.8143   -0.0055 H       1  UNL11       0.0627
     33 H           5.7408   -1.4306   -0.2479 H       1  UNL11       0.3292
@<TRIPOS>BOND
     1     1     2    2
     2     2     3   am
     3     3     4    1
     4     3    22    1
     5     4     5    2
     6     5     6    1
     7     5    16    1
     8     6     7    1
     9     6    23    1
    10     6    24    1
    11     7     8   ar
    12     8     9   ar
    13     8    25    1
    14     9    10   ar
    15     9    26    1
    16    10    11   ar
    17    10    27    1
    18    11    12    1
    19    11    15   ar
    20    12    13    2
    21    12    14    1
    22    15     7   ar
    23    15    28    1
    24    16    17   ar
    25    17    18   ar
    26    17    29    1
    27    18    19   ar
    28    18    30    1
    29    19    20   ar
    30    19    31    1
    31    20    21   ar
    32    20    32    1
    33    21     2    1
    34    21    16   ar
    35    14    33    1
@<TRIPOS>MOLECULE
*****
 33 35 0 0 0
SMALL
GASTEIGER

@<TRIPOS>ATOM
      1 O          -3.5199   -1.9556   -2.2656 O.2     1  UNL11      -0.2116
      2 C          -2.6758   -1.1195   -1.8768 C.2     1  UNL11       0.4383
      3 N          -2.0592   -0.2661   -2.7100 N.am    1  UNL11      -0.0356
      4 N          -1.1713    0.6038   -2.2653 N.2     1  UNL11      -0.0073
      5 C          -0.8219    0.6954   -0.9462 C.2     1  UNL11       0.1192
      6 C           0.2228    1.6407   -0.5611 C.3     1  UNL11       0.0211
      7 C           1.4143    0.9833    0.0994 C.ar    1  UNL11      -0.0392
      8 C           1.5495    0.7786    1.4260 C.ar    1  UNL11      -0.0581
      9 C           2.6937    0.1526    1.9295 C.ar    1  UNL11      -0.0593
     10 C           3.6913   -0.2592    1.0782 C.ar    1  UNL11      -0.0316
     11 C           3.5815   -0.0639   -0.2711 C.ar    1  UNL11       0.1219
     12 N           4.6250   -0.4895   -1.1693 N.4     1  UNL11       0.0060
     13 O           4.7812    0.1661   -2.2105 O.2     1  UNL11      -0.1300
     14 O           5.4336   -1.5615   -0.9364 O.2     1  UNL11      -0.3961
     15 C           2.4518    0.5509   -0.7433 C.ar    1  UNL11      -0.0281
     16 C          -1.4402   -0.1628   -0.0848 C.ar    1  UNL11       0.0192
     17 C          -1.1479   -0.1062    1.2655 C.ar    1  UNL11      -0.0518
     18 C          -1.7582   -0.9422    2.1728 C.ar    1  UNL11      -0.0611
     19 C          -2.6861   -1.8623    1.7364 C.ar    1  UNL11      -0.0608
     20 C          -2.9821   -1.9188    0.3818 C.ar    1  UNL11      -0.0441
     21 C          -2.3821   -1.0909   -0.5351 C.ar    1  UNL11       0.1004
     22 H          -2.3177   -0.3244   -3.7323 H       1  UNL11       0.4829
     23 H           0.6490    2.0832   -1.5104 H       1  UNL11       0.0379
     24 H          -0.1204    2.5282    0.0060 H       1  UNL11       0.0379
     25 H           0.8098    1.0899    2.1281 H       1  UNL11       0.0620
     26 H           2.8014   -0.0104    2.9908 H       1  UNL11       0.0618
     27 H           4.6034   -0.7533    1.4401 H       1  UNL11       0.0640
     28 H           2.3426    0.7172   -1.8101 H       1  UNL11       0.0643
     29 H          -0.4315    0.6479    1.5627 H       1  UNL11       0.0624
     30 H          -1.4805   -0.8443    3.2161 H       1  UNL11       0.0618
     31 H          -3.1530   -2.5088    2.4631 H       1  UNL11       0.0618
     32 H          -3.7034   -2.6252    0.0031 H       1  UNL11       0.0627
     33 H           5.3281   -2.0668   -0.1544 H       1  UNL11       0.3292
@<TRIPOS>BOND
     1     1     2    2
     2     2     3   am
     3     3     4    1
     4     3    22    1
     5     4     5    2
     6     5     6    1
     7     5    16    1
     8     6     7    1
     9     6    23    1
    10     6    24    1
    11     7     8   ar
    12     8     9   ar
    13     8    25    1
    14     9    10   ar
    15     9    26    1
    16    10    11   ar
    17    10    27    1
    18    11    12    1
    19    11    15   ar
    20    12    13    2
    21    12    14    1
    22    15     7   ar
    23    15    28    1
    24    16    17   ar
    25    17    18   ar
    26    17    29    1
    27    18    19   ar
    28    18    30    1
    29    19    20   ar
    30    19    31    1
    31    20    21   ar
    32    20    32    1
    33    21     2    1
    34    21    16   ar
    35    14    33    1
@<TRIPOS>MOLECULE
*****
 33 35 0 0 0
SMALL
GASTEIGER

@<TRIPOS>ATOM
      1 O          -3.7366   -1.9492   -1.6933 O.2     1  UNL11      -0.2116
      2 C          -2.8186   -1.1387   -1.4423 C.2     1  UNL11       0.4383
      3 N          -1.9336   -1.3256   -0.4501 N.am    1  UNL11      -0.0356
      4 N          -0.9766   -0.4479   -0.2117 N.2     1  UNL11      -0.0073
      5 C          -0.8219    0.6954   -0.9462 C.2     1  UNL11       0.1192
      6 C           0.2228    1.6407   -0.5611 C.3     1  UNL11       0.0211
      7 C           1.4143    0.9833    0.0994 C.ar    1  UNL11      -0.0392
      8 C           1.5495    0.7786    1.4260 C.ar    1  UNL11      -0.0581
      9 C           2.6937    0.1526    1.9295 C.ar    1  UNL11      -0.0593
     10 C           3.6913   -0.2592    1.0782 C.ar    1  UNL11      -0.0316
     11 C           3.5815   -0.0639   -0.2711 C.ar    1  UNL11       0.1219
     12 N           4.6250   -0.4895   -1.1693 N.4     1  UNL11       0.0060
     13 O           4.7812    0.1661   -2.2105 O.2     1  UNL11      -0.1300
     14 O           5.4336   -1.5615   -0.9364 O.2     1  UNL11      -0.3961
     15 C           2.4518    0.5509   -0.7433 C.ar    1  UNL11      -0.0281
     16 C          -1.7111    0.9006   -1.9601 C.ar    1  UNL11       0.0192
     17 C          -1.5957    2.0264   -2.7546 C.ar    1  UNL11      -0.0518
     18 C          -2.4610    2.2668   -3.7976 C.ar    1  UNL11      -0.0611
     19 C          -3.4714    1.3697   -4.0669 C.ar    1  UNL11      -0.0608
     20 C          -3.5872    0.2383   -3.2718 C.ar    1  UNL11      -0.0441
     21 C          -2.7310   -0.0155   -2.2283 C.ar    1  UNL11       0.1004
     22 H          -2.0397   -2.2038    0.1269 H       1  UNL11       0.4829
     23 H           0.6490    2.0832   -1.5104 H       1  UNL11       0.0379
     24 H          -0.1204    2.5282    0.0060 H       1  UNL11       0.0379
     25 H           0.8098    1.0899    2.1281 H       1  UNL11       0.0620
     26 H           2.8014   -0.0104    2.9908 H       1  UNL11       0.0618
     27 H           4.6034   -0.7533    1.4401 H       1  UNL11       0.0640
     28 H           2.3426    0.7172   -1.8101 H       1  UNL11       0.0643
     29 H          -0.7731    2.6884   -2.5193 H       1  UNL11       0.0624
     30 H          -2.3132    3.1699   -4.3787 H       1  UNL11       0.0618
     31 H          -4.1395    1.5764   -4.8885 H       1  UNL11       0.0618
     32 H          -4.3647   -0.4865   -3.4526 H       1  UNL11       0.0627
     33 H           5.3281   -2.0668   -0.1544 H       1  UNL11       0.3292
@<TRIPOS>BOND
     1     1     2    2
     2     2     3   am
     3     3     4    1
     4     3    22    1
     5     4     5    2
     6     5     6    1
     7     5    16    1
     8     6     7    1
     9     6    23    1
    10     6    24    1
    11     7     8   ar
    12     8     9   ar
    13     8    25    1
    14     9    10   ar
    15     9    26    1
    16    10    11   ar
    17    10    27    1
    18    11    12    1
    19    11    15   ar
    20    12    13    2
    21    12    14    1
    22    15     7   ar
    23    15    28    1
    24    16    17   ar
    25    17    18   ar
    26    17    29    1
    27    18    19   ar
    28    18    30    1
    29    19    20   ar
    30    19    31    1
    31    20    21   ar
    32    20    32    1
    33    21     2    1
    34    21    16   ar
    35    14    33    1
@<TRIPOS>MOLECULE
*****
 33 35 0 0 0
SMALL
GASTEIGER

@<TRIPOS>ATOM
      1 O          -3.8342   -1.6564   -2.1475 O.2     1  UNL11      -0.2116
      2 C          -2.9105   -0.9048   -1.7673 C.2     1  UNL11       0.4383
      3 N          -3.1217    0.3523   -1.3455 N.am    1  UNL11      -0.0356
      4 N          -2.1221    1.1196   -0.9517 N.2     1  UNL11      -0.0073
      5 C          -0.8219    0.6954   -0.9462 C.2     1  UNL11       0.1192
      6 C           0.2228    1.6407   -0.5611 C.3     1  UNL11       0.0211
      7 C           1.4143    0.9833    0.0994 C.ar    1  UNL11      -0.0392
      8 C           2.2009    1.5617    1.0305 C.ar    1  UNL11      -0.0581
      9 C           3.2752    0.8572    1.5816 C.ar    1  UNL11      -0.0593
     10 C           3.5406   -0.4303    1.1798 C.ar    1  UNL11      -0.0316
     11 C           2.7605   -1.0414    0.2371 C.ar    1  UNL11       0.1219
     12 N           3.0348   -2.3896   -0.1919 N.4     1  UNL11       0.0060
     13 O           4.0021   -2.9659    0.3280 O.2     1  UNL11      -0.1300
     14 O           2.2972   -3.0509   -1.1279 O.2     1  UNL11      -0.3961
     15 C           1.7125   -0.3333   -0.2896 C.ar    1  UNL11      -0.0281
     16 C          -0.5889   -0.5802   -1.3696 C.ar    1  UNL11       0.0192
     17 C           0.7014   -1.0775   -1.3669 C.ar    1  UNL11      -0.0518
     18 C           0.9814   -2.3630   -1.7714 C.ar    1  UNL11      -0.0611
     19 C          -0.0418   -3.1848   -2.1909 C.ar    1  UNL11      -0.0608
     20 C          -1.3375   -2.6878   -2.1919 C.ar    1  UNL11      -0.0441
     21 C          -1.6324   -1.4079   -1.7906 C.ar    1  UNL11       0.1004
     22 H          -4.1206    0.6952   -1.3442 H       1  UNL11       0.4829
     23 H           0.6490    2.0832   -1.5104 H       1  UNL11       0.0379
     24 H          -0.1204    2.5282    0.0060 H       1  UNL11       0.0379
     25 H           2.0437    2.5613    1.3667 H       1  UNL11       0.0620
     26 H           3.9043    1.3206    2.3260 H       1  UNL11       0.0618
     27 H           4.3766   -1.0121    1.5916 H       1  UNL11       0.0640
     28 H           1.0800   -0.7971   -1.0396 H       1  UNL11       0.0643
     29 H           1.4669   -0.4032   -1.0069 H       1  UNL11       0.0624
     30 H           2.0155   -2.6869   -1.7450 H       1  UNL11       0.0618
     31 H           0.1983   -4.1888   -2.5043 H       1  UNL11       0.0618
     32 H          -2.1640   -3.3015   -2.5127 H       1  UNL11       0.0627
     33 H           1.5634   -2.6291   -1.5298 H       1  UNL11       0.3292
@<TRIPOS>BOND
     1     1     2    2
     2     2     3   am
     3     3     4    1
     4     3    22    1
     5     4     5    2
     6     5     6    1
     7     5    16    1
     8     6     7    1
     9     6    23    1
    10     6    24    1
    11     7     8   ar
    12     8     9   ar
    13     8    25    1
    14     9    10   ar
    15     9    26    1
    16    10    11   ar
    17    10    27    1
    18    11    12    1
    19    11    15   ar
    20    12    13    2
    21    12    14    1
    22    15     7   ar
    23    15    28    1
    24    16    17   ar
    25    17    18   ar
    26    17    29    1
    27    18    19   ar
    28    18    30    1
    29    19    20   ar
    30    19    31    1
    31    20    21   ar
    32    20    32    1
    33    21     2    1
    34    21    16   ar
    35    14    33    1
@<TRIPOS>MOLECULE
*****
 33 35 0 0 0
SMALL
GASTEIGER

@<TRIPOS>ATOM
      1 O          -3.6172   -1.8320   -2.3050 O.2     1  UNL11      -0.2116
      2 C          -2.7514   -1.0272   -1.8984 C.2     1  UNL11       0.4383
      3 N          -2.5211    0.1553   -2.4912 N.am    1  UNL11      -0.0356
      4 N          -1.5974    0.9813   -2.0359 N.2     1  UNL11      -0.0073
      5 C          -0.8219    0.6954   -0.9462 C.2     1  UNL11       0.1192
      6 C           0.2228    1.6407   -0.5611 C.3     1  UNL11       0.0211
      7 C           1.4143    0.9833    0.0994 C.ar    1  UNL11      -0.0392
      8 C           1.5404   -0.3401    0.3291 C.ar    1  UNL11      -0.0581
      9 C           2.6919   -0.8424    0.9423 C.ar    1  UNL11      -0.0593
     10 C           3.7056    0.0069    1.3173 C.ar    1  UNL11      -0.0316
     11 C           3.6046    1.3531    1.0976 C.ar    1  UNL11       0.1219
     12 N           4.6616    2.2501    1.4914 N.4     1  UNL11       0.0060
     13 O           5.6586    1.7504    2.0340 O.2     1  UNL11      -0.1300
     14 O           4.6190    3.5992    1.3026 O.2     1  UNL11      -0.3961
     15 C           2.4680    1.8242    0.4948 C.ar    1  UNL11      -0.0281
     16 C          -1.0437   -0.5011   -0.3298 C.ar    1  UNL11       0.0192
     17 C          -0.3084   -0.8406    0.7909 C.ar    1  UNL11      -0.0518
     18 C          -0.5084   -2.0303    1.4535 C.ar    1  UNL11      -0.0611
     19 C          -1.4633   -2.9131    0.9983 C.ar    1  UNL11      -0.0608
     20 C          -2.2036   -2.5727   -0.1250 C.ar    1  UNL11      -0.0441
     21 C          -2.0159   -1.3893   -0.7961 C.ar    1  UNL11       0.1004
     22 H          -3.1116    0.3910   -3.3346 H       1  UNL11       0.4829
     23 H           0.6490    2.0832   -1.5104 H       1  UNL11       0.0379
     24 H          -0.1204    2.5282    0.0060 H       1  UNL11       0.0379
     25 H           0.7778   -1.0381    0.0677 H       1  UNL11       0.0620
     26 H           2.7919   -1.9011    1.1262 H       1  UNL11       0.0618
     27 H           4.6233   -0.3540    1.8016 H       1  UNL11       0.0640
     28 H           2.3650    2.8887    0.3108 H       1  UNL11       0.0643
     29 H           0.4120   -0.1055    1.1238 H       1  UNL11       0.0624
     30 H           0.1044   -2.2326    2.3245 H       1  UNL11       0.0618
     31 H          -1.6046   -3.8404    1.5313 H       1  UNL11       0.0618
     32 H          -2.9599   -3.2377   -0.5102 H       1  UNL11       0.0627
     33 H           3.8727    3.9917    0.8941 H       1  UNL11       0.3292
@<TRIPOS>BOND
     1     1     2    2
     2     2     3   am
     3     3     4    1
     4     3    22    1
     5     4     5    2
     6     5     6    1
     7     5    16    1
     8     6     7    1
     9     6    23    1
    10     6    24    1
    11     7     8   ar
    12     8     9   ar
    13     8    25    1
    14     9    10   ar
    15     9    26    1
    16    10    11   ar
    17    10    27    1
    18    11    12    1
    19    11    15   ar
    20    12    13    2
    21    12    14    1
    22    15     7   ar
    23    15    28    1
    24    16    17   ar
    25    17    18   ar
    26    17    29    1
    27    18    19   ar
    28    18    30    1
    29    19    20   ar
    30    19    31    1
    31    20    21   ar
    32    20    32    1
    33    21     2    1
    34    21    16   ar
    35    14    33    1
@<TRIPOS>MOLECULE
*****
 33 35 0 0 0
SMALL
GASTEIGER

@<TRIPOS>ATOM
      1 O          -3.7306   -1.7233   -2.2642 O.2     1  UNL11      -0.2116
      2 C          -2.8361   -0.9491   -1.8602 C.2     1  UNL11       0.4383
      3 N          -2.9076    0.3840   -2.0041 N.am    1  UNL11      -0.0356
      4 N          -1.9435    1.1726   -1.5664 N.2     1  UNL11      -0.0073
      5 C          -0.8219    0.6954   -0.9462 C.2     1  UNL11       0.1192
      6 C           0.2228    1.6407   -0.5611 C.3     1  UNL11       0.0211
      7 C           1.4143    0.9833    0.0994 C.ar    1  UNL11      -0.0392
      8 C           2.5056    0.5267   -0.5493 C.ar    1  UNL11      -0.0581
      9 C           3.5554   -0.0595    0.1638 C.ar    1  UNL11      -0.0593
     10 C           3.4854   -0.1768    1.5316 C.ar    1  UNL11      -0.0316
     11 C           2.3910    0.2764    2.2153 C.ar    1  UNL11       0.1219
     12 N           2.3088    0.1534    3.6488 N.4     1  UNL11       0.0060
     13 O           1.1794    0.0227    4.1443 O.2     1  UNL11      -0.1300
     14 O           3.3933    0.1762    4.4739 O.2     1  UNL11      -0.3961
     15 C           1.3738    0.8481    1.4971 C.ar    1  UNL11      -0.0281
     16 C          -0.7334   -0.6568   -0.7894 C.ar    1  UNL11       0.0192
     17 C           0.3650   -1.2015   -0.1501 C.ar    1  UNL11      -0.0518
     18 C           0.4893   -2.5585    0.0433 C.ar    1  UNL11      -0.0611
     19 C          -0.4998   -3.4056   -0.4063 C.ar    1  UNL11      -0.0608
     20 C          -1.6039   -2.8602   -1.0462 C.ar    1  UNL11      -0.0441
     21 C          -1.7422   -1.5085   -1.2458 C.ar    1  UNL11       0.1004
     22 H          -3.7676    0.7684   -2.4817 H       1  UNL11       0.4829
     23 H           0.6490    2.0832   -1.5104 H       1  UNL11       0.0379
     24 H          -0.1204    2.5282    0.0060 H       1  UNL11       0.0379
     25 H           2.6026    0.5839   -1.6096 H       1  UNL11       0.0620
     26 H           4.4278   -0.4249   -0.3558 H       1  UNL11       0.0618
     27 H           4.2917   -0.6325    2.1226 H       1  UNL11       0.0640
     28 H           0.4950    1.2144    2.0178 H       1  UNL11       0.0643
     29 H           1.1029   -0.4950    0.2059 H       1  UNL11       0.0624
     30 H           1.3774   -2.9171    0.5511 H       1  UNL11       0.0618
     31 H          -0.3835   -4.4661   -0.2453 H       1  UNL11       0.0618
     32 H          -2.3983   -3.4914   -1.4110 H       1  UNL11       0.0627
     33 H           4.2532    0.2743    4.1148 H       1  UNL11       0.3292
@<TRIPOS>BOND
     1     1     2    2
     2     2     3   am
     3     3     4    1
     4     3    22    1
     5     4     5    2
     6     5     6    1
     7     5    16    1
     8     6     7    1
     9     6    23    1
    10     6    24    1
    11     7     8   ar
    12     8     9   ar
    13     8    25    1
    14     9    10   ar
    15     9    26    1
    16    10    11   ar
    17    10    27    1
    18    11    12    1
    19    11    15   ar
    20    12    13    2
    21    12    14    1
    22    15     7   ar
    23    15    28    1
    24    16    17   ar
    25    17    18   ar
    26    17    29    1
    27    18    19   ar
    28    18    30    1
    29    19    20   ar
    30    19    31    1
    31    20    21   ar
    32    20    32    1
    33    21     2    1
    34    21    16   ar
    35    14    33    1
@<TRIPOS>MOLECULE
*****
 33 35 0 0 0
SMALL
GASTEIGER

@<TRIPOS>ATOM
      1 O          -3.7366   -1.9492   -1.6933 O.2     1  UNL11      -0.2116
      2 C          -2.8186   -1.1387   -1.4423 C.2     1  UNL11       0.4383
      3 N          -1.9336   -1.3256   -0.4501 N.am    1  UNL11      -0.0356
      4 N          -0.9766   -0.4479   -0.2117 N.2     1  UNL11      -0.0073
      5 C          -0.8219    0.6954   -0.9462 C.2     1  UNL11       0.1192
      6 C           0.2228    1.6407   -0.5611 C.3     1  UNL11       0.0211
      7 C           1.4143    0.9833    0.0994 C.ar    1  UNL11      -0.0392
      8 C           2.6807    1.0309   -0.3634 C.ar    1  UNL11      -0.0581
      9 C           3.7101    0.3911    0.3333 C.ar    1  UNL11      -0.0593
     10 C           3.4417   -0.2927    1.4951 C.ar    1  UNL11      -0.0316
     11 C           2.1672   -0.3583    1.9872 C.ar    1  UNL11       0.1219
     12 N           1.8775   -1.0765    3.2026 N.4     1  UNL11       0.0060
     13 O           0.7541   -1.5920    3.3043 O.2     1  UNL11      -0.1300
     14 O           2.7620   -1.2124    4.2305 O.2     1  UNL11      -0.3961
     15 C           1.1735    0.2762    1.2892 C.ar    1  UNL11      -0.0281
     16 C          -1.7111    0.9006   -1.9601 C.ar    1  UNL11       0.0192
     17 C          -1.5957    2.0264   -2.7546 C.ar    1  UNL11      -0.0518
     18 C          -2.4610    2.2668   -3.7976 C.ar    1  UNL11      -0.0611
     19 C          -3.4714    1.3697   -4.0669 C.ar    1  UNL11      -0.0608
     20 C          -3.5872    0.2383   -3.2718 C.ar    1  UNL11      -0.0441
     21 C          -2.7310   -0.0155   -2.2283 C.ar    1  UNL11       0.1004
     22 H          -2.0397   -2.2038    0.1269 H       1  UNL11       0.4829
     23 H           0.6490    2.0832   -1.5104 H       1  UNL11       0.0379
     24 H          -0.1204    2.5282    0.0060 H       1  UNL11       0.0379
     25 H           2.9381    1.5381   -1.2653 H       1  UNL11       0.0620
     26 H           4.7227    0.4292   -0.0377 H       1  UNL11       0.0618
     27 H           4.2263   -0.8070    2.0669 H       1  UNL11       0.0640
     28 H           0.1543    0.2374    1.6598 H       1  UNL11       0.0643
     29 H          -0.7731    2.6884   -2.5193 H       1  UNL11       0.0624
     30 H          -2.3132    3.1699   -4.3787 H       1  UNL11       0.0618
     31 H          -4.1395    1.5764   -4.8885 H       1  UNL11       0.0618
     32 H          -4.3647   -0.4865   -3.4526 H       1  UNL11       0.0627
     33 H           3.6146   -0.8287    4.1688 H       1  UNL11       0.3292
@<TRIPOS>BOND
     1     1     2    2
     2     2     3   am
     3     3     4    1
     4     3    22    1
     5     4     5    2
     6     5     6    1
     7     5    16    1
     8     6     7    1
     9     6    23    1
    10     6    24    1
    11     7     8   ar
    12     8     9   ar
    13     8    25    1
    14     9    10   ar
    15     9    26    1
    16    10    11   ar
    17    10    27    1
    18    11    12    1
    19    11    15   ar
    20    12    13    2
    21    12    14    1
    22    15     7   ar
    23    15    28    1
    24    16    17   ar
    25    17    18   ar
    26    17    29    1
    27    18    19   ar
    28    18    30    1
    29    19    20   ar
    30    19    31    1
    31    20    21   ar
    32    20    32    1
    33    21     2    1
    34    21    16   ar
    35    14    33    1
@<TRIPOS>MOLECULE
*****
 33 35 0 0 0
SMALL
GASTEIGER

@<TRIPOS>ATOM
      1 O          -3.6232   -2.0572   -1.7359 O.2     1  UNL11      -0.2116
      2 C          -2.7340   -1.2161   -1.4818 C.2     1  UNL11       0.4383
      3 N          -1.5503   -1.5486   -0.9422 N.am    1  UNL11      -0.0356
      4 N          -0.6336   -0.6339   -0.6856 N.2     1  UNL11      -0.0073
      5 C          -0.8219    0.6954   -0.9462 C.2     1  UNL11       0.1192
      6 C           0.2228    1.6407   -0.5611 C.3     1  UNL11       0.0211
      7 C           1.4143    0.9833    0.0994 C.ar    1  UNL11      -0.0392
      8 C           1.5495    0.7786    1.4260 C.ar    1  UNL11      -0.0581
      9 C           2.6937    0.1526    1.9295 C.ar    1  UNL11      -0.0593
     10 C           3.6913   -0.2592    1.0782 C.ar    1  UNL11      -0.0316
     11 C           3.5815   -0.0639   -0.2711 C.ar    1  UNL11       0.1219
     12 N           4.6250   -0.4895   -1.1693 N.4     1  UNL11       0.0060
     13 O           5.3007   -1.4727   -0.8305 O.2     1  UNL11      -0.1300
     14 O           4.9033    0.1271   -2.3524 O.2     1  UNL11      -0.3961
     15 C           2.4518    0.5509   -0.7433 C.ar    1  UNL11      -0.0281
     16 C          -2.0182    1.0512   -1.4966 C.ar    1  UNL11       0.0192
     17 C          -2.2627    2.3768   -1.8050 C.ar    1  UNL11      -0.0518
     18 C          -3.4492    2.7793   -2.3749 C.ar    1  UNL11      -0.0611
     19 C          -4.4252    1.8467   -2.6503 C.ar    1  UNL11      -0.0608
     20 C          -4.1804    0.5157   -2.3434 C.ar    1  UNL11      -0.0441
     21 C          -3.0014    0.0989   -1.7755 C.ar    1  UNL11       0.1004
     22 H          -1.3894   -2.5715   -0.7345 H       1  UNL11       0.4829
     23 H           0.6490    2.0832   -1.5104 H       1  UNL11       0.0379
     24 H          -0.1204    2.5282    0.0060 H       1  UNL11       0.0379
     25 H           0.8098    1.0899    2.1281 H       1  UNL11       0.0620
     26 H           2.8014   -0.0104    2.9908 H       1  UNL11       0.0618
     27 H           4.6034   -0.7533    1.4401 H       1  UNL11       0.0640
     28 H           2.3426    0.7172   -1.8101 H       1  UNL11       0.0643
     29 H          -1.4578    3.0676   -1.5925 H       1  UNL11       0.0624
     30 H          -3.5742    3.8345   -2.5892 H       1  UNL11       0.0618
     31 H          -5.3483    2.1824   -3.0967 H       1  UNL11       0.0618
     32 H          -4.9200   -0.2426   -2.5451 H       1  UNL11       0.0627
     33 H           4.4018    0.8711   -2.6224 H       1  UNL11       0.3292
@<TRIPOS>BOND
     1     1     2    2
     2     2     3   am
     3     3     4    1
     4     3    22    1
     5     4     5    2
     6     5     6    1
     7     5    16    1
     8     6     7    1
     9     6    23    1
    10     6    24    1
    11     7     8   ar
    12     8     9   ar
    13     8    25    1
    14     9    10   ar
    15     9    26    1
    16    10    11   ar
    17    10    27    1
    18    11    12    1
    19    11    15   ar
    20    12    13    2
    21    12    14    1
    22    15     7   ar
    23    15    28    1
    24    16    17   ar
    25    17    18   ar
    26    17    29    1
    27    18    19   ar
    28    18    30    1
    29    19    20   ar
    30    19    31    1
    31    20    21   ar
    32    20    32    1
    33    21     2    1
    34    21    16   ar
    35    14    33    1
@<TRIPOS>MOLECULE
*****
 33 35 0 0 0
SMALL
GASTEIGER

@<TRIPOS>ATOM
      1 O          -3.7366   -1.9492   -1.6933 O.2     1  UNL11      -0.2116
      2 C          -2.8186   -1.1387   -1.4423 C.2     1  UNL11       0.4383
      3 N          -1.9336   -1.3256   -0.4501 N.am    1  UNL11      -0.0356
      4 N          -0.9766   -0.4479   -0.2117 N.2     1  UNL11      -0.0073
      5 C          -0.8219    0.6954   -0.9462 C.2     1  UNL11       0.1192
      6 C           0.2228    1.6407   -0.5611 C.3     1  UNL11       0.0211
      7 C           1.4143    0.9833    0.0994 C.ar    1  UNL11      -0.0392
      8 C           2.6807    1.0309   -0.3634 C.ar    1  UNL11      -0.0581
      9 C           3.7101    0.3911    0.3333 C.ar    1  UNL11      -0.0593
     10 C           3.4417   -0.2927    1.4951 C.ar    1  UNL11      -0.0316
     11 C           2.1672   -0.3583    1.9872 C.ar    1  UNL11       0.1219
     12 N           1.8775   -1.0765    3.2026 N.4     1  UNL11       0.0060
     13 O           2.8282   -1.6278    3.7775 O.2     1  UNL11      -0.1300
     14 O           0.6300   -1.1805    3.7413 O.2     1  UNL11      -0.3961
     15 C           1.1735    0.2762    1.2892 C.ar    1  UNL11      -0.0281
     16 C          -1.7111    0.9006   -1.9601 C.ar    1  UNL11       0.0192
     17 C          -1.5957    2.0264   -2.7546 C.ar    1  UNL11      -0.0518
     18 C          -2.4610    2.2668   -3.7976 C.ar    1  UNL11      -0.0611
     19 C          -3.4714    1.3697   -4.0669 C.ar    1  UNL11      -0.0608
     20 C          -3.5872    0.2383   -3.2718 C.ar    1  UNL11      -0.0441
     21 C          -2.7310   -0.0155   -2.2283 C.ar    1  UNL11       0.1004
     22 H          -2.0397   -2.2038    0.1269 H       1  UNL11       0.4829
     23 H           0.6490    2.0832   -1.5104 H       1  UNL11       0.0379
     24 H          -0.1204    2.5282    0.0060 H       1  UNL11       0.0379
     25 H           2.9381    1.5381   -1.2653 H       1  UNL11       0.0620
     26 H           4.7227    0.4292   -0.0377 H       1  UNL11       0.0618
     27 H           4.2263   -0.8070    2.0669 H       1  UNL11       0.0640
     28 H           0.1543    0.2374    1.6598 H       1  UNL11       0.0643
     29 H          -0.7731    2.6884   -2.5193 H       1  UNL11       0.0624
     30 H          -2.3132    3.1699   -4.3787 H       1  UNL11       0.0618
     31 H          -4.1395    1.5764   -4.8885 H       1  UNL11       0.0618
     32 H          -4.3647   -0.4865   -3.4526 H       1  UNL11       0.0627
     33 H          -0.0985   -0.7696    3.3188 H       1  UNL11       0.3292
@<TRIPOS>BOND
     1     1     2    2
     2     2     3   am
     3     3     4    1
     4     3    22    1
     5     4     5    2
     6     5     6    1
     7     5    16    1
     8     6     7    1
     9     6    23    1
    10     6    24    1
    11     7     8   ar
    12     8     9   ar
    13     8    25    1
    14     9    10   ar
    15     9    26    1
    16    10    11   ar
    17    10    27    1
    18    11    12    1
    19    11    15   ar
    20    12    13    2
    21    12    14    1
    22    15     7   ar
    23    15    28    1
    24    16    17   ar
    25    17    18   ar
    26    17    29    1
    27    18    19   ar
    28    18    30    1
    29    19    20   ar
    30    19    31    1
    31    20    21   ar
    32    20    32    1
    33    21     2    1
    34    21    16   ar
    35    14    33    1
@<TRIPOS>MOLECULE
*****
 33 35 0 0 0
SMALL
GASTEIGER

@<TRIPOS>ATOM
      1 O          -3.6232   -2.0572   -1.7359 O.2     1  UNL11      -0.2116
      2 C          -2.7340   -1.2161   -1.4818 C.2     1  UNL11       0.4383
      3 N          -1.5503   -1.5486   -0.9422 N.am    1  UNL11      -0.0356
      4 N          -0.6336   -0.6339   -0.6856 N.2     1  UNL11      -0.0073
      5 C          -0.8219    0.6954   -0.9462 C.2     1  UNL11       0.1192
      6 C           0.2228    1.6407   -0.5611 C.3     1  UNL11       0.0211
      7 C           1.4143    0.9833    0.0994 C.ar    1  UNL11      -0.0392
      8 C           1.3673   -0.1487    0.8319 C.ar    1  UNL11      -0.0581
      9 C           2.5351   -0.6743    1.3926 C.ar    1  UNL11      -0.0593
     10 C           3.7412   -0.0427    1.2036 C.ar    1  UNL11      -0.0316
     11 C           3.8186    1.1067    0.4663 C.ar    1  UNL11       0.1219
     12 N           5.0790    1.7765    0.2670 N.4     1  UNL11       0.0060
     13 O           5.2269    2.4065   -0.7911 O.2     1  UNL11      -0.1300
     14 O           6.1012    1.7498    1.1680 O.2     1  UNL11      -0.3961
     15 C           2.6624    1.6043   -0.0747 C.ar    1  UNL11      -0.0281
     16 C          -2.0182    1.0512   -1.4966 C.ar    1  UNL11       0.0192
     17 C          -2.2627    2.3768   -1.8050 C.ar    1  UNL11      -0.0518
     18 C          -3.4492    2.7793   -2.3749 C.ar    1  UNL11      -0.0611
     19 C          -4.4252    1.8467   -2.6503 C.ar    1  UNL11      -0.0608
     20 C          -4.1804    0.5157   -2.3434 C.ar    1  UNL11      -0.0441
     21 C          -3.0014    0.0989   -1.7755 C.ar    1  UNL11       0.1004
     22 H          -1.3894   -2.5715   -0.7345 H       1  UNL11       0.4829
     23 H           0.6490    2.0832   -1.5104 H       1  UNL11       0.0379
     24 H          -0.1204    2.5282    0.0060 H       1  UNL11       0.0379
     25 H           0.4552   -0.6690    1.0171 H       1  UNL11       0.0620
     26 H           2.4966   -1.5795    1.9788 H       1  UNL11       0.0618
     27 H           4.6775   -0.4280    1.6302 H       1  UNL11       0.0640
     28 H           2.6989    2.5155   -0.6629 H       1  UNL11       0.0643
     29 H          -1.4578    3.0676   -1.5925 H       1  UNL11       0.0624
     30 H          -3.5742    3.8345   -2.5892 H       1  UNL11       0.0618
     31 H          -5.3483    2.1824   -3.0967 H       1  UNL11       0.0618
     32 H          -4.9200   -0.2426   -2.5451 H       1  UNL11       0.0627
     33 H           6.0048    1.2782    1.9719 H       1  UNL11       0.3292
@<TRIPOS>BOND
     1     1     2    2
     2     2     3   am
     3     3     4    1
     4     3    22    1
     5     4     5    2
     6     5     6    1
     7     5    16    1
     8     6     7    1
     9     6    23    1
    10     6    24    1
    11     7     8   ar
    12     8     9   ar
    13     8    25    1
    14     9    10   ar
    15     9    26    1
    16    10    11   ar
    17    10    27    1
    18    11    12    1
    19    11    15   ar
    20    12    13    2
    21    12    14    1
    22    15     7   ar
    23    15    28    1
    24    16    17   ar
    25    17    18   ar
    26    17    29    1
    27    18    19   ar
    28    18    30    1
    29    19    20   ar
    30    19    31    1
    31    20    21   ar
    32    20    32    1
    33    21     2    1
    34    21    16   ar
    35    14    33    1
@<TRIPOS>MOLECULE
*****
 33 35 0 0 0
SMALL
GASTEIGER

@<TRIPOS>ATOM
      1 O          -3.4639   -2.0619   -2.1565 O.2     1  UNL11      -0.2116
      2 C          -2.6290   -1.2021   -1.8011 C.2     1  UNL11       0.4383
      3 N          -1.6426   -0.7700   -2.6031 N.am    1  UNL11      -0.0356
      4 N          -0.7767    0.1390   -2.1948 N.2     1  UNL11      -0.0073
      5 C          -0.8219    0.6954   -0.9462 C.2     1  UNL11       0.1192
      6 C           0.2228    1.6407   -0.5611 C.3     1  UNL11       0.0211
      7 C           1.4143    0.9833    0.0994 C.ar    1  UNL11      -0.0392
      8 C           2.2045    0.0540   -0.4768 C.ar    1  UNL11      -0.0581
      9 C           3.2873   -0.4837    0.2253 C.ar    1  UNL11      -0.0593
     10 C           3.5563   -0.0714    1.5087 C.ar    1  UNL11      -0.0316
     11 C           2.7716    0.8686    2.1181 C.ar    1  UNL11       0.1219
     12 N           3.0451    1.3031    3.4647 N.4     1  UNL11       0.0060
     13 O           4.0162    0.7904    4.0412 O.2     1  UNL11      -0.1300
     14 O           2.2996    2.2325    4.1263 O.2     1  UNL11      -0.3961
     15 C           1.7161    1.3829    1.4120 C.ar    1  UNL11      -0.0281
     16 C          -1.8191    0.2697   -0.1185 C.ar    1  UNL11       0.0192
     17 C          -1.9337    0.8095    1.1494 C.ar    1  UNL11      -0.0518
     18 C          -2.9326    0.4210    2.0128 C.ar    1  UNL11      -0.0611
     19 C          -3.8481   -0.5285    1.6146 C.ar    1  UNL11      -0.0608
     20 C          -3.7357   -1.0695    0.3416 C.ar    1  UNL11      -0.0441
     21 C          -2.7450   -0.6914   -0.5311 C.ar    1  UNL11       0.1004
     22 H          -1.5937   -1.1904   -3.5707 H       1  UNL11       0.4829
     23 H           0.6490    2.0832   -1.5104 H       1  UNL11       0.0379
     24 H          -0.1204    2.5282    0.0060 H       1  UNL11       0.0379
     25 H           2.0308   -0.3070   -1.4649 H       1  UNL11       0.0620
     26 H           3.9187   -1.2274   -0.2361 H       1  UNL11       0.0618
     27 H           4.3982   -0.4734    2.0889 H       1  UNL11       0.0640
     28 H           1.0790    2.1295    1.8750 H       1  UNL11       0.0643
     29 H          -1.2068    1.5680    1.4074 H       1  UNL11       0.0624
     30 H          -2.9623    0.8845    2.9923 H       1  UNL11       0.0618
     31 H          -4.6233   -0.8198    2.3061 H       1  UNL11       0.0618
     32 H          -4.4339   -1.8143   -0.0055 H       1  UNL11       0.0627
     33 H           1.5629    2.6289    3.7044 H       1  UNL11       0.3292
@<TRIPOS>BOND
     1     1     2    2
     2     2     3   am
     3     3     4    1
     4     3    22    1
     5     4     5    2
     6     5     6    1
     7     5    16    1
     8     6     7    1
     9     6    23    1
    10     6    24    1
    11     7     8   ar
    12     8     9   ar
    13     8    25    1
    14     9    10   ar
    15     9    26    1
    16    10    11   ar
    17    10    27    1
    18    11    12    1
    19    11    15   ar
    20    12    13    2
    21    12    14    1
    22    15     7   ar
    23    15    28    1
    24    16    17   ar
    25    17    18   ar
    26    17    29    1
    27    18    19   ar
    28    18    30    1
    29    19    20   ar
    30    19    31    1
    31    20    21   ar
    32    20    32    1
    33    21     2    1
    34    21    16   ar
    35    14    33    1
@<TRIPOS>MOLECULE
*****
 33 35 0 0 0
SMALL
GASTEIGER

@<TRIPOS>ATOM
      1 O          -3.5199   -1.9556   -2.2656 O.2     1  UNL11      -0.2116
      2 C          -2.6758   -1.1195   -1.8768 C.2     1  UNL11       0.4383
      3 N          -2.0592   -0.2661   -2.7100 N.am    1  UNL11      -0.0356
      4 N          -1.1713    0.6038   -2.2653 N.2     1  UNL11      -0.0073
      5 C          -0.8219    0.6954   -0.9462 C.2     1  UNL11       0.1192
      6 C           0.2228    1.6407   -0.5611 C.3     1  UNL11       0.0211
      7 C           1.4143    0.9833    0.0994 C.ar    1  UNL11      -0.0392
      8 C           2.5056    0.5267   -0.5493 C.ar    1  UNL11      -0.0581
      9 C           3.5554   -0.0595    0.1638 C.ar    1  UNL11      -0.0593
     10 C           3.4854   -0.1768    1.5316 C.ar    1  UNL11      -0.0316
     11 C           2.3910    0.2764    2.2153 C.ar    1  UNL11       0.1219
     12 N           2.3088    0.1534    3.6488 N.4     1  UNL11       0.0060
     13 O           3.3743    0.1736    4.2831 O.2     1  UNL11      -0.1300
     14 O           1.1369    0.0153    4.3307 O.2     1  UNL11      -0.3961
     15 C           1.3738    0.8481    1.4971 C.ar    1  UNL11      -0.0281
     16 C          -1.4402   -0.1628   -0.0848 C.ar    1  UNL11       0.0192
     17 C          -1.1479   -0.1062    1.2655 C.ar    1  UNL11      -0.0518
     18 C          -1.7582   -0.9422    2.1728 C.ar    1  UNL11      -0.0611
     19 C          -2.6861   -1.8623    1.7364 C.ar    1  UNL11      -0.0608
     20 C          -2.9821   -1.9188    0.3818 C.ar    1  UNL11      -0.0441
     21 C          -2.3821   -1.0909   -0.5351 C.ar    1  UNL11       0.1004
     22 H          -2.3177   -0.3244   -3.7323 H       1  UNL11       0.4829
     23 H           0.6490    2.0832   -1.5104 H       1  UNL11       0.0379
     24 H          -0.1204    2.5282    0.0060 H       1  UNL11       0.0379
     25 H           2.6026    0.5839   -1.6096 H       1  UNL11       0.0620
     26 H           4.4278   -0.4249   -0.3558 H       1  UNL11       0.0618
     27 H           4.2917   -0.6325    2.1226 H       1  UNL11       0.0640
     28 H           0.4950    1.2144    2.0178 H       1  UNL11       0.0643
     29 H          -0.4315    0.6479    1.5627 H       1  UNL11       0.0624
     30 H          -1.4805   -0.8443    3.2161 H       1  UNL11       0.0618
     31 H          -3.1530   -2.5088    2.4631 H       1  UNL11       0.0618
     32 H          -3.7034   -2.6252    0.0031 H       1  UNL11       0.0627
     33 H           0.3235   -0.0017    3.8658 H       1  UNL11       0.3292
@<TRIPOS>BOND
     1     1     2    2
     2     2     3   am
     3     3     4    1
     4     3    22    1
     5     4     5    2
     6     5     6    1
     7     5    16    1
     8     6     7    1
     9     6    23    1
    10     6    24    1
    11     7     8   ar
    12     8     9   ar
    13     8    25    1
    14     9    10   ar
    15     9    26    1
    16    10    11   ar
    17    10    27    1
    18    11    12    1
    19    11    15   ar
    20    12    13    2
    21    12    14    1
    22    15     7   ar
    23    15    28    1
    24    16    17   ar
    25    17    18   ar
    26    17    29    1
    27    18    19   ar
    28    18    30    1
    29    19    20   ar
    30    19    31    1
    31    20    21   ar
    32    20    32    1
    33    21     2    1
    34    21    16   ar
    35    14    33    1
@<TRIPOS>MOLECULE
*****
 33 35 0 0 0
SMALL
GASTEIGER

@<TRIPOS>ATOM
      1 O          -3.5199   -1.9556   -2.2656 O.2     1  UNL11      -0.2116
      2 C          -2.6758   -1.1195   -1.8768 C.2     1  UNL11       0.4383
      3 N          -2.0592   -0.2661   -2.7100 N.am    1  UNL11      -0.0356
      4 N          -1.1713    0.6038   -2.2653 N.2     1  UNL11      -0.0073
      5 C          -0.8219    0.6954   -0.9462 C.2     1  UNL11       0.1192
      6 C           0.2228    1.6407   -0.5611 C.3     1  UNL11       0.0211
      7 C           1.4143    0.9833    0.0994 C.ar    1  UNL11      -0.0392
      8 C           2.2045    0.0540   -0.4768 C.ar    1  UNL11      -0.0581
      9 C           3.2873   -0.4837    0.2253 C.ar    1  UNL11      -0.0593
     10 C           3.5563   -0.0714    1.5087 C.ar    1  UNL11      -0.0316
     11 C           2.7716    0.8686    2.1181 C.ar    1  UNL11       0.1219
     12 N           3.0451    1.3031    3.4647 N.4     1  UNL11       0.0060
     13 O           4.2261    1.2746    3.8424 O.2     1  UNL11      -0.1300
     14 O           2.0851    1.7340    4.3307 O.2     1  UNL11      -0.3961
     15 C           1.7161    1.3829    1.4120 C.ar    1  UNL11      -0.0281
     16 C          -1.4402   -0.1628   -0.0848 C.ar    1  UNL11       0.0192
     17 C          -1.1479   -0.1062    1.2655 C.ar    1  UNL11      -0.0518
     18 C          -1.7582   -0.9422    2.1728 C.ar    1  UNL11      -0.0611
     19 C          -2.6861   -1.8623    1.7364 C.ar    1  UNL11      -0.0608
     20 C          -2.9821   -1.9188    0.3818 C.ar    1  UNL11      -0.0441
     21 C          -2.3821   -1.0909   -0.5351 C.ar    1  UNL11       0.1004
     22 H          -2.3177   -0.3244   -3.7323 H       1  UNL11       0.4829
     23 H           0.6490    2.0832   -1.5104 H       1  UNL11       0.0379
     24 H          -0.1204    2.5282    0.0060 H       1  UNL11       0.0379
     25 H           2.0308   -0.3070   -1.4649 H       1  UNL11       0.0620
     26 H           3.9187   -1.2274   -0.2361 H       1  UNL11       0.0618
     27 H           4.3982   -0.4734    2.0889 H       1  UNL11       0.0640
     28 H           1.0790    2.1295    1.8750 H       1  UNL11       0.0643
     29 H          -0.4315    0.6479    1.5627 H       1  UNL11       0.0624
     30 H          -1.4805   -0.8443    3.2161 H       1  UNL11       0.0618
     31 H          -3.1530   -2.5088    2.4631 H       1  UNL11       0.0618
     32 H          -3.7034   -2.6252    0.0031 H       1  UNL11       0.0627
     33 H           1.1884    1.7613    4.0604 H       1  UNL11       0.3292
@<TRIPOS>BOND
     1     1     2    2
     2     2     3   am
     3     3     4    1
     4     3    22    1
     5     4     5    2
     6     5     6    1
     7     5    16    1
     8     6     7    1
     9     6    23    1
    10     6    24    1
    11     7     8   ar
    12     8     9   ar
    13     8    25    1
    14     9    10   ar
    15     9    26    1
    16    10    11   ar
    17    10    27    1
    18    11    12    1
    19    11    15   ar
    20    12    13    2
    21    12    14    1
    22    15     7   ar
    23    15    28    1
    24    16    17   ar
    25    17    18   ar
    26    17    29    1
    27    18    19   ar
    28    18    30    1
    29    19    20   ar
    30    19    31    1
    31    20    21   ar
    32    20    32    1
    33    21     2    1
    34    21    16   ar
    35    14    33    1
@<TRIPOS>MOLECULE
*****
 33 35 0 0 0
SMALL
GASTEIGER

@<TRIPOS>ATOM
      1 O          -3.8385   -1.8198   -1.7345 O.2     1  UNL11      -0.2116
      2 C          -2.8978   -1.0420   -1.4649 C.2     1  UNL11       0.4383
      3 N          -2.4170   -0.8846   -0.2212 N.am    1  UNL11      -0.0356
      4 N          -1.4225   -0.0529    0.0284 N.2     1  UNL11      -0.0073
      5 C          -0.8219    0.6954   -0.9462 C.2     1  UNL11       0.1192
      6 C           0.2228    1.6407   -0.5611 C.3     1  UNL11       0.0211
      7 C           1.4143    0.9833    0.0994 C.ar    1  UNL11      -0.0392
      8 C           2.2009    1.5617    1.0305 C.ar    1  UNL11      -0.0581
      9 C           3.2752    0.8572    1.5816 C.ar    1  UNL11      -0.0593
     10 C           3.5406   -0.4303    1.1798 C.ar    1  UNL11      -0.0316
     11 C           2.7605   -1.0414    0.2371 C.ar    1  UNL11       0.1219
     12 N           3.0348   -2.3896   -0.1919 N.4     1  UNL11       0.0060
     13 O           4.0021   -2.9659    0.3280 O.2     1  UNL11      -0.1300
     14 O           2.2972   -3.0509   -1.1279 O.2     1  UNL11      -0.3961
     15 C           1.7125   -0.3333   -0.2896 C.ar    1  UNL11      -0.0281
     16 C          -1.2962    0.5465   -2.2165 C.ar    1  UNL11       0.0192
     17 C          -0.7172    1.2578   -3.2512 C.ar    1  UNL11      -0.0518
     18 C          -1.1532    1.1281   -4.5503 C.ar    1  UNL11      -0.0611
     19 C          -2.1917    0.2702   -4.8393 C.ar    1  UNL11      -0.0608
     20 C          -2.7724   -0.4461   -3.8022 C.ar    1  UNL11      -0.0441
     21 C          -2.3478   -0.3277   -2.5014 C.ar    1  UNL11       0.1004
     22 H          -2.8705   -1.4552    0.5431 H       1  UNL11       0.4829
     23 H           0.6490    2.0832   -1.5104 H       1  UNL11       0.0379
     24 H          -0.1204    2.5282    0.0060 H       1  UNL11       0.0379
     25 H           2.0437    2.5613    1.3667 H       1  UNL11       0.0620
     26 H           3.9043    1.3206    2.3260 H       1  UNL11       0.0618
     27 H           4.3766   -1.0121    1.5916 H       1  UNL11       0.0640
     28 H           1.0800   -0.7971   -1.0396 H       1  UNL11       0.0643
     29 H           0.1096    1.9000   -2.9786 H       1  UNL11       0.0624
     30 H          -0.6546    1.7170   -5.3117 H       1  UNL11       0.0618
     31 H          -2.5191    0.1829   -5.8636 H       1  UNL11       0.0618
     32 H          -3.5867   -1.1275   -3.9898 H       1  UNL11       0.0627
     33 H           1.5634   -2.6291   -1.5298 H       1  UNL11       0.3292
@<TRIPOS>BOND
     1     1     2    2
     2     2     3   am
     3     3     4    1
     4     3    22    1
     5     4     5    2
     6     5     6    1
     7     5    16    1
     8     6     7    1
     9     6    23    1
    10     6    24    1
    11     7     8   ar
    12     8     9   ar
    13     8    25    1
    14     9    10   ar
    15     9    26    1
    16    10    11   ar
    17    10    27    1
    18    11    12    1
    19    11    15   ar
    20    12    13    2
    21    12    14    1
    22    15     7   ar
    23    15    28    1
    24    16    17   ar
    25    17    18   ar
    26    17    29    1
    27    18    19   ar
    28    18    30    1
    29    19    20   ar
    30    19    31    1
    31    20    21   ar
    32    20    32    1
    33    21     2    1
    34    21    16   ar
    35    14    33    1
@<TRIPOS>MOLECULE
*****
 33 35 0 0 0
SMALL
GASTEIGER

@<TRIPOS>ATOM
      1 O          -3.8932   -1.7144   -1.8450 O.2     1  UNL11      -0.2116
      2 C          -2.9437   -0.9600   -1.5417 C.2     1  UNL11       0.4383
      3 N          -2.8310   -0.3803   -0.3358 N.am    1  UNL11      -0.0356
      4 N          -1.8150    0.4126   -0.0494 N.2     1  UNL11      -0.0073
      5 C          -0.8219    0.6954   -0.9462 C.2     1  UNL11       0.1192
      6 C           0.2228    1.6407   -0.5611 C.3     1  UNL11       0.0211
      7 C           1.4143    0.9833    0.0994 C.ar    1  UNL11      -0.0392
      8 C           2.2045    0.0540   -0.4768 C.ar    1  UNL11      -0.0581
      9 C           3.2873   -0.4837    0.2253 C.ar    1  UNL11      -0.0593
     10 C           3.5563   -0.0714    1.5087 C.ar    1  UNL11      -0.0316
     11 C           2.7716    0.8686    2.1181 C.ar    1  UNL11       0.1219
     12 N           3.0451    1.3031    3.4647 N.4     1  UNL11       0.0060
     13 O           4.0162    0.7904    4.0412 O.2     1  UNL11      -0.1300
     14 O           2.2996    2.2325    4.1263 O.2     1  UNL11      -0.3961
     15 C           1.7161    1.3829    1.4120 C.ar    1  UNL11      -0.0281
     16 C          -0.9190    0.1132   -2.1760 C.ar    1  UNL11       0.0192
     17 C           0.0646    0.3407   -3.1208 C.ar    1  UNL11      -0.0518
     18 C           0.0155   -0.2373   -4.3689 C.ar    1  UNL11      -0.0611
     19 C          -1.0351   -1.0662   -4.6965 C.ar    1  UNL11      -0.0608
     20 C          -2.0219   -1.2973   -3.7485 C.ar    1  UNL11      -0.0441
     21 C          -1.9862   -0.7284   -2.4990 C.ar    1  UNL11       0.1004
     22 H          -3.5904   -0.5883    0.3681 H       1  UNL11       0.4829
     23 H           0.6490    2.0832   -1.5104 H       1  UNL11       0.0379
     24 H          -0.1204    2.5282    0.0060 H       1  UNL11       0.0379
     25 H           2.0308   -0.3070   -1.4649 H       1  UNL11       0.0620
     26 H           3.9187   -1.2274   -0.2361 H       1  UNL11       0.0618
     27 H           4.3982   -0.4734    2.0889 H       1  UNL11       0.0640
     28 H           1.0790    2.1295    1.8750 H       1  UNL11       0.0643
     29 H           0.8806    0.9788   -2.8091 H       1  UNL11       0.0624
     30 H           0.8197   -0.0145   -5.0608 H       1  UNL11       0.0618
     31 H          -1.0556   -1.5093   -5.6800 H       1  UNL11       0.0618
     32 H          -2.8589   -1.9406   -3.9682 H       1  UNL11       0.0627
     33 H           1.5629    2.6289    3.7044 H       1  UNL11       0.3292
@<TRIPOS>BOND
     1     1     2    2
     2     2     3   am
     3     3     4    1
     4     3    22    1
     5     4     5    2
     6     5     6    1
     7     5    16    1
     8     6     7    1
     9     6    23    1
    10     6    24    1
    11     7     8   ar
    12     8     9   ar
    13     8    25    1
    14     9    10   ar
    15     9    26    1
    16    10    11   ar
    17    10    27    1
    18    11    12    1
    19    11    15   ar
    20    12    13    2
    21    12    14    1
    22    15     7   ar
    23    15    28    1
    24    16    17   ar
    25    17    18   ar
    26    17    29    1
    27    18    19   ar
    28    18    30    1
    29    19    20   ar
    30    19    31    1
    31    20    21   ar
    32    20    32    1
    33    21     2    1
    34    21    16   ar
    35    14    33    1
@<TRIPOS>MOLECULE
*****
 33 35 0 0 0
SMALL
GASTEIGER

@<TRIPOS>ATOM
      1 O          -3.4639   -2.0619   -2.1565 O.2     1  UNL11      -0.2116
      2 C          -2.6290   -1.2021   -1.8011 C.2     1  UNL11       0.4383
      3 N          -1.6426   -0.7700   -2.6031 N.am    1  UNL11      -0.0356
      4 N          -0.7767    0.1390   -2.1948 N.2     1  UNL11      -0.0073
      5 C          -0.8219    0.6954   -0.9462 C.2     1  UNL11       0.1192
      6 C           0.2228    1.6407   -0.5611 C.3     1  UNL11       0.0211
      7 C           1.4143    0.9833    0.0994 C.ar    1  UNL11      -0.0392
      8 C           2.6807    1.0309   -0.3634 C.ar    1  UNL11      -0.0581
      9 C           3.7101    0.3911    0.3333 C.ar    1  UNL11      -0.0593
     10 C           3.4417   -0.2927    1.4951 C.ar    1  UNL11      -0.0316
     11 C           2.1672   -0.3583    1.9872 C.ar    1  UNL11       0.1219
     12 N           1.8775   -1.0765    3.2026 N.4     1  UNL11       0.0060
     13 O           2.8282   -1.6278    3.7775 O.2     1  UNL11      -0.1300
     14 O           0.6300   -1.1805    3.7413 O.2     1  UNL11      -0.3961
     15 C           1.1735    0.2762    1.2892 C.ar    1  UNL11      -0.0281
     16 C          -1.8191    0.2697   -0.1185 C.ar    1  UNL11       0.0192
     17 C          -1.9337    0.8095    1.1494 C.ar    1  UNL11      -0.0518
     18 C          -2.9326    0.4210    2.0128 C.ar    1  UNL11      -0.0611
     19 C          -3.8481   -0.5285    1.6146 C.ar    1  UNL11      -0.0608
     20 C          -3.7357   -1.0695    0.3416 C.ar    1  UNL11      -0.0441
     21 C          -2.7450   -0.6914   -0.5311 C.ar    1  UNL11       0.1004
     22 H          -1.5937   -1.1904   -3.5707 H       1  UNL11       0.4829
     23 H           0.6490    2.0832   -1.5104 H       1  UNL11       0.0379
     24 H          -0.1204    2.5282    0.0060 H       1  UNL11       0.0379
     25 H           2.9381    1.5381   -1.2653 H       1  UNL11       0.0620
     26 H           4.7227    0.4292   -0.0377 H       1  UNL11       0.0618
     27 H           4.2263   -0.8070    2.0669 H       1  UNL11       0.0640
     28 H           0.1543    0.2374    1.6598 H       1  UNL11       0.0643
     29 H          -1.2068    1.5680    1.4074 H       1  UNL11       0.0624
     30 H          -2.9623    0.8845    2.9923 H       1  UNL11       0.0618
     31 H          -4.6233   -0.8198    2.3061 H       1  UNL11       0.0618
     32 H          -4.4339   -1.8143   -0.0055 H       1  UNL11       0.0627
     33 H          -0.0985   -0.7696    3.3188 H       1  UNL11       0.3292
@<TRIPOS>BOND
     1     1     2    2
     2     2     3   am
     3     3     4    1
     4     3    22    1
     5     4     5    2
     6     5     6    1
     7     5    16    1
     8     6     7    1
     9     6    23    1
    10     6    24    1
    11     7     8   ar
    12     8     9   ar
    13     8    25    1
    14     9    10   ar
    15     9    26    1
    16    10    11   ar
    17    10    27    1
    18    11    12    1
    19    11    15   ar
    20    12    13    2
    21    12    14    1
    22    15     7   ar
    23    15    28    1
    24    16    17   ar
    25    17    18   ar
    26    17    29    1
    27    18    19   ar
    28    18    30    1
    29    19    20   ar
    30    19    31    1
    31    20    21   ar
    32    20    32    1
    33    21     2    1
    34    21    16   ar
    35    14    33    1
@<TRIPOS>MOLECULE
*****
 33 35 0 0 0
SMALL
GASTEIGER

@<TRIPOS>ATOM
      1 O          -3.8916   -1.6547   -1.9958 O.2     1  UNL11      -0.2116
      2 C          -2.9483   -0.9099   -1.6521 C.2     1  UNL11       0.4383
      3 N          -3.0884    0.0714   -0.7464 N.am    1  UNL11      -0.0356
      4 N          -2.0705    0.8407   -0.4073 N.2     1  UNL11      -0.0073
      5 C          -0.8219    0.6954   -0.9462 C.2     1  UNL11       0.1192
      6 C           0.2228    1.6407   -0.5611 C.3     1  UNL11       0.0211
      7 C           1.4143    0.9833    0.0994 C.ar    1  UNL11      -0.0392
      8 C           2.2045    0.0540   -0.4768 C.ar    1  UNL11      -0.0581
      9 C           3.2873   -0.4837    0.2253 C.ar    1  UNL11      -0.0593
     10 C           3.5563   -0.0714    1.5087 C.ar    1  UNL11      -0.0316
     11 C           2.7716    0.8686    2.1181 C.ar    1  UNL11       0.1219
     12 N           3.0451    1.3031    3.4647 N.4     1  UNL11       0.0060
     13 O           2.0783    1.6615    4.1538 O.2     1  UNL11      -0.1300
     14 O           4.2942    1.3416    4.0086 O.2     1  UNL11      -0.3961
     15 C           1.7161    1.3829    1.4120 C.ar    1  UNL11      -0.0281
     16 C          -0.6607   -0.2984   -1.8667 C.ar    1  UNL11       0.0192
     17 C           0.5827   -0.5122   -2.4326 C.ar    1  UNL11      -0.0518
     18 C           0.7951   -1.5123   -3.3541 C.ar    1  UNL11      -0.0611
     19 C          -0.2500   -2.3280   -3.7293 C.ar    1  UNL11      -0.0608
     20 C          -1.4979   -2.1160   -3.1604 C.ar    1  UNL11      -0.0441
     21 C          -1.7249   -1.1229   -2.2394 C.ar    1  UNL11       0.1004
     22 H          -4.0469    0.1970   -0.3211 H       1  UNL11       0.4829
     23 H           0.6490    2.0832   -1.5104 H       1  UNL11       0.0379
     24 H          -0.1204    2.5282    0.0060 H       1  UNL11       0.0379
     25 H           2.0308   -0.3070   -1.4649 H       1  UNL11       0.0620
     26 H           3.9187   -1.2274   -0.2361 H       1  UNL11       0.0618
     27 H           4.3982   -0.4734    2.0889 H       1  UNL11       0.0640
     28 H           1.0790    2.1295    1.8750 H       1  UNL11       0.0643
     29 H           1.3763    0.1377   -2.0890 H       1  UNL11       0.0624
     30 H           1.7948   -1.6228   -3.7583 H       1  UNL11       0.0618
     31 H          -0.0632   -3.1059   -4.4532 H       1  UNL11       0.0618
     32 H          -2.3393   -2.7346   -3.4288 H       1  UNL11       0.0627
     33 H           5.0348    1.0740    3.5007 H       1  UNL11       0.3292
@<TRIPOS>BOND
     1     1     2    2
     2     2     3   am
     3     3     4    1
     4     3    22    1
     5     4     5    2
     6     5     6    1
     7     5    16    1
     8     6     7    1
     9     6    23    1
    10     6    24    1
    11     7     8   ar
    12     8     9   ar
    13     8    25    1
    14     9    10   ar
    15     9    26    1
    16    10    11   ar
    17    10    27    1
    18    11    12    1
    19    11    15   ar
    20    12    13    2
    21    12    14    1
    22    15     7   ar
    23    15    28    1
    24    16    17   ar
    25    17    18   ar
    26    17    29    1
    27    18    19   ar
    28    18    30    1
    29    19    20   ar
    30    19    31    1
    31    20    21   ar
    32    20    32    1
    33    21     2    1
    34    21    16   ar
    35    14    33    1
