@<TRIPOS>MOLECULE
*****
 40 43 0 0 0
SMALL
GASTEIGER

@<TRIPOS>ATOM
      1 O          -3.4896    3.3086    1.1732 O.2     1  UNL11      -0.1727
      2 C          -4.0894    2.2910    0.7983 C.2     1  UNL11       0.6254
      3 N          -5.4269    2.1790    0.7255 N.am    1  UNL11       0.0964
      4 N          -5.7665    0.9918    0.2916 N.2     1  UNL11       0.2205
      5 C          -4.6194    0.2765    0.0631 C.2     1  UNL11       0.3781
      6 N          -3.6218    1.1006    0.3848 N.am    1  UNL11      -0.0548
      7 C          -2.2415    0.7860    0.2978 C.ar    1  UNL11       0.1390
      8 C          -1.4826    1.5443    1.1291 C.ar    1  UNL11      -0.0124
      9 C          -0.0914    1.3589    1.1047 C.ar    1  UNL11      -0.0161
     10 C           0.5497    0.4623    0.2985 C.ar    1  UNL11       0.1215
     11 O           1.9286    0.3005    0.2937 O.3     1  UNL11      -0.4874
     12 C           2.7447    0.5218    1.4003 C.3     1  UNL11       0.1147
     13 C           2.8732   -0.7542    2.1553 C.ar    1  UNL11      -0.0077
     14 C           4.0178   -1.0489    2.8761 C.ar    1  UNL11      -0.0552
     15 C           4.1129   -2.2335    3.5652 C.ar    1  UNL11      -0.0587
     16 C           3.0967   -3.1649    3.5724 C.ar    1  UNL11      -0.0264
     17 C           1.9611   -2.8661    2.8537 C.ar    1  UNL11       0.1238
     18 F           0.9246   -3.7375    2.8183 F       1  UNL11      -0.2055
     19 C           1.8474   -1.6866    2.1583 C.ar    1  UNL11      -0.0201
     20 C          -0.2603   -0.3089   -0.5467 C.ar    1  UNL11      -0.0129
     21 C          -1.6149   -0.1498   -0.5436 C.ar    1  UNL11       0.0015
     22 C          -2.3705   -1.0749   -1.4357 C.3     1  UNL11      -0.0232
     23 C          -3.3771   -1.7864   -0.5300 C.3     1  UNL11      -0.0377
     24 C          -4.6926   -1.0969   -0.4640 C.3     1  UNL11       0.0589
     25 H          -6.1167    2.9264    0.9766 H       1  UNL11       0.5148
     26 H          -1.9294    2.2358    1.8019 H       1  UNL11       0.0659
     27 H           0.4810    1.9758    1.7740 H       1  UNL11       0.0655
     28 H           3.7353    0.9083    1.0777 H       1  UNL11       0.0748
     29 H           2.3301    1.2959    2.1017 H       1  UNL11       0.0748
     30 H           4.8336   -0.3376    2.8902 H       1  UNL11       0.0621
     31 H           5.0343   -2.4118    4.1134 H       1  UNL11       0.0619
     32 H           3.2036   -4.0962    4.1298 H       1  UNL11       0.0646
     33 H           0.9596   -1.4445    1.5918 H       1  UNL11       0.0650
     34 H           0.2141   -1.0223   -1.1906 H       1  UNL11       0.0658
     35 H          -1.6607   -1.8469   -1.7881 H       1  UNL11       0.0315
     36 H          -2.9379   -0.5750   -2.2209 H       1  UNL11       0.0315
     37 H          -3.5536   -2.7873   -1.0109 H       1  UNL11       0.0274
     38 H          -2.9326   -1.9979    0.4536 H       1  UNL11       0.0274
     39 H          -5.4638   -1.6920    0.0828 H       1  UNL11       0.0389
     40 H          -5.0394   -0.9730   -1.5434 H       1  UNL11       0.0389
@<TRIPOS>BOND
     1     1     2    2
     2     2     3   am
     3     3     4    1
     4     3    25    1
     5     4     5    2
     6     5     6    1
     7     6     7    1
     8     6     2   am
     9     7     8   ar
    10     8     9   ar
    11     8    26    1
    12     9    10   ar
    13     9    27    1
    14    10    11    1
    15    10    20   ar
    16    11    12    1
    17    12    13    1
    18    12    28    1
    19    12    29    1
    20    13    14   ar
    21    14    15   ar
    22    14    30    1
    23    15    16   ar
    24    15    31    1
    25    16    17   ar
    26    16    32    1
    27    17    18    1
    28    17    19   ar
    29    19    13   ar
    30    19    33    1
    31    20    21   ar
    32    20    34    1
    33    21    22    1
    34    21     7   ar
    35    22    23    1
    36    22    35    1
    37    22    36    1
    38    23    24    1
    39    23    37    1
    40    23    38    1
    41    24     5    1
    42    24    39    1
    43    24    40    1
@<TRIPOS>MOLECULE
*****
 40 43 0 0 0
SMALL
GASTEIGER

@<TRIPOS>ATOM
      1 O          -3.4896    3.3086    1.1732 O.2     1  UNL11      -0.1727
      2 C          -4.0894    2.2910    0.7983 C.2     1  UNL11       0.6254
      3 N          -5.4269    2.1790    0.7255 N.am    1  UNL11       0.0964
      4 N          -5.7665    0.9918    0.2916 N.2     1  UNL11       0.2205
      5 C          -4.6194    0.2765    0.0631 C.2     1  UNL11       0.3781
      6 N          -3.6218    1.1006    0.3848 N.am    1  UNL11      -0.0548
      7 C          -2.2415    0.7860    0.2978 C.ar    1  UNL11       0.1390
      8 C          -1.4826    1.5443    1.1291 C.ar    1  UNL11      -0.0124
      9 C          -0.0914    1.3589    1.1047 C.ar    1  UNL11      -0.0161
     10 C           0.5497    0.4623    0.2985 C.ar    1  UNL11       0.1215
     11 O           1.9286    0.3005    0.2937 O.3     1  UNL11      -0.4874
     12 C           2.8351    1.3163    0.5867 C.3     1  UNL11       0.1147
     13 C           4.2137    0.7703    0.4606 C.ar    1  UNL11      -0.0077
     14 C           4.9000    0.8260   -0.7404 C.ar    1  UNL11      -0.0552
     15 C           6.1719    0.3150   -0.8322 C.ar    1  UNL11      -0.0587
     16 C           6.8120   -0.2644    0.2424 C.ar    1  UNL11      -0.0264
     17 C           6.1243   -0.3169    1.4340 C.ar    1  UNL11       0.1238
     18 F           6.6948   -0.8731    2.5294 F       1  UNL11      -0.2055
     19 C           4.8516    0.1887    1.5452 C.ar    1  UNL11      -0.0201
     20 C          -0.2603   -0.3089   -0.5467 C.ar    1  UNL11      -0.0129
     21 C          -1.6149   -0.1498   -0.5436 C.ar    1  UNL11       0.0015
     22 C          -2.3705   -1.0749   -1.4357 C.3     1  UNL11      -0.0232
     23 C          -3.3771   -1.7864   -0.5300 C.3     1  UNL11      -0.0377
     24 C          -4.6926   -1.0969   -0.4640 C.3     1  UNL11       0.0589
     25 H          -6.1167    2.9264    0.9766 H       1  UNL11       0.5148
     26 H          -1.9294    2.2358    1.8019 H       1  UNL11       0.0659
     27 H           0.4810    1.9758    1.7740 H       1  UNL11       0.0655
     28 H           2.6745    2.1833   -0.0896 H       1  UNL11       0.0748
     29 H           2.7190    1.7188    1.6296 H       1  UNL11       0.0748
     30 H           4.4244    1.2750   -1.6029 H       1  UNL11       0.0621
     31 H           6.6626    0.3860   -1.7994 H       1  UNL11       0.0619
     32 H           7.8225   -0.6609    0.1366 H       1  UNL11       0.0646
     33 H           4.3051    0.1516    2.4766 H       1  UNL11       0.0650
     34 H           0.2141   -1.0223   -1.1906 H       1  UNL11       0.0658
     35 H          -1.6607   -1.8469   -1.7881 H       1  UNL11       0.0315
     36 H          -2.9379   -0.5750   -2.2209 H       1  UNL11       0.0315
     37 H          -3.5536   -2.7873   -1.0109 H       1  UNL11       0.0274
     38 H          -2.9326   -1.9979    0.4536 H       1  UNL11       0.0274
     39 H          -5.4638   -1.6920    0.0828 H       1  UNL11       0.0389
     40 H          -5.0394   -0.9730   -1.5434 H       1  UNL11       0.0389
@<TRIPOS>BOND
     1     1     2    2
     2     2     3   am
     3     3     4    1
     4     3    25    1
     5     4     5    2
     6     5     6    1
     7     6     7    1
     8     6     2   am
     9     7     8   ar
    10     8     9   ar
    11     8    26    1
    12     9    10   ar
    13     9    27    1
    14    10    11    1
    15    10    20   ar
    16    11    12    1
    17    12    13    1
    18    12    28    1
    19    12    29    1
    20    13    14   ar
    21    14    15   ar
    22    14    30    1
    23    15    16   ar
    24    15    31    1
    25    16    17   ar
    26    16    32    1
    27    17    18    1
    28    17    19   ar
    29    19    13   ar
    30    19    33    1
    31    20    21   ar
    32    20    34    1
    33    21    22    1
    34    21     7   ar
    35    22    23    1
    36    22    35    1
    37    22    36    1
    38    23    24    1
    39    23    37    1
    40    23    38    1
    41    24     5    1
    42    24    39    1
    43    24    40    1
@<TRIPOS>MOLECULE
*****
 40 43 0 0 0
SMALL
GASTEIGER

@<TRIPOS>ATOM
      1 O          -3.4896    3.3086    1.1732 O.2     1  UNL11      -0.1727
      2 C          -4.0894    2.2910    0.7983 C.2     1  UNL11       0.6254
      3 N          -5.4269    2.1790    0.7255 N.am    1  UNL11       0.0964
      4 N          -5.7665    0.9918    0.2916 N.2     1  UNL11       0.2205
      5 C          -4.6194    0.2765    0.0631 C.2     1  UNL11       0.3781
      6 N          -3.6218    1.1006    0.3848 N.am    1  UNL11      -0.0548
      7 C          -2.2415    0.7860    0.2978 C.ar    1  UNL11       0.1390
      8 C          -1.4826    1.5443    1.1291 C.ar    1  UNL11      -0.0124
      9 C          -0.0914    1.3589    1.1047 C.ar    1  UNL11      -0.0161
     10 C           0.5497    0.4623    0.2985 C.ar    1  UNL11       0.1215
     11 O           1.9286    0.3005    0.2937 O.3     1  UNL11      -0.4874
     12 C           2.5729   -0.9009    0.0090 C.3     1  UNL11       0.1147
     13 C           3.3846   -1.2938    1.1929 C.ar    1  UNL11      -0.0077
     14 C           3.6205   -2.6251    1.4907 C.ar    1  UNL11      -0.0552
     15 C           4.3730   -2.9630    2.5892 C.ar    1  UNL11      -0.0587
     16 C           4.9172   -2.0150    3.4290 C.ar    1  UNL11      -0.0264
     17 C           4.6789   -0.6929    3.1275 C.ar    1  UNL11       0.1238
     18 F           5.1844    0.2895    3.9114 F       1  UNL11      -0.2055
     19 C           3.9289   -0.3353    2.0333 C.ar    1  UNL11      -0.0201
     20 C          -0.2603   -0.3089   -0.5467 C.ar    1  UNL11      -0.0129
     21 C          -1.6149   -0.1498   -0.5436 C.ar    1  UNL11       0.0015
     22 C          -2.3705   -1.0749   -1.4357 C.3     1  UNL11      -0.0232
     23 C          -3.3771   -1.7864   -0.5300 C.3     1  UNL11      -0.0377
     24 C          -4.6926   -1.0969   -0.4640 C.3     1  UNL11       0.0589
     25 H          -6.1167    2.9264    0.9766 H       1  UNL11       0.5148
     26 H          -1.9294    2.2358    1.8019 H       1  UNL11       0.0659
     27 H           0.4810    1.9758    1.7740 H       1  UNL11       0.0655
     28 H           1.8299   -1.6834   -0.2562 H       1  UNL11       0.0748
     29 H           3.2652   -0.8276   -0.8733 H       1  UNL11       0.0748
     30 H           3.2068   -3.3934    0.8503 H       1  UNL11       0.0621
     31 H           4.5257   -4.0230    2.7745 H       1  UNL11       0.0619
     32 H           5.5102   -2.3163    4.2934 H       1  UNL11       0.0646
     33 H           3.7373    0.6999    1.7897 H       1  UNL11       0.0650
     34 H           0.2141   -1.0223   -1.1906 H       1  UNL11       0.0658
     35 H          -1.6607   -1.8469   -1.7881 H       1  UNL11       0.0315
     36 H          -2.9379   -0.5750   -2.2209 H       1  UNL11       0.0315
     37 H          -3.5536   -2.7873   -1.0109 H       1  UNL11       0.0274
     38 H          -2.9326   -1.9979    0.4536 H       1  UNL11       0.0274
     39 H          -5.4638   -1.6920    0.0828 H       1  UNL11       0.0389
     40 H          -5.0394   -0.9730   -1.5434 H       1  UNL11       0.0389
@<TRIPOS>BOND
     1     1     2    2
     2     2     3   am
     3     3     4    1
     4     3    25    1
     5     4     5    2
     6     5     6    1
     7     6     7    1
     8     6     2   am
     9     7     8   ar
    10     8     9   ar
    11     8    26    1
    12     9    10   ar
    13     9    27    1
    14    10    11    1
    15    10    20   ar
    16    11    12    1
    17    12    13    1
    18    12    28    1
    19    12    29    1
    20    13    14   ar
    21    14    15   ar
    22    14    30    1
    23    15    16   ar
    24    15    31    1
    25    16    17   ar
    26    16    32    1
    27    17    18    1
    28    17    19   ar
    29    19    13   ar
    30    19    33    1
    31    20    21   ar
    32    20    34    1
    33    21    22    1
    34    21     7   ar
    35    22    23    1
    36    22    35    1
    37    22    36    1
    38    23    24    1
    39    23    37    1
    40    23    38    1
    41    24     5    1
    42    24    39    1
    43    24    40    1
@<TRIPOS>MOLECULE
*****
 40 43 0 0 0
SMALL
GASTEIGER

@<TRIPOS>ATOM
      1 O          -3.4896    3.3086    1.1732 O.2     1  UNL11      -0.1727
      2 C          -4.0894    2.2910    0.7983 C.2     1  UNL11       0.6254
      3 N          -5.4269    2.1790    0.7255 N.am    1  UNL11       0.0964
      4 N          -5.7665    0.9918    0.2916 N.2     1  UNL11       0.2205
      5 C          -4.6194    0.2765    0.0631 C.2     1  UNL11       0.3781
      6 N          -3.6218    1.1006    0.3848 N.am    1  UNL11      -0.0548
      7 C          -2.2415    0.7860    0.2978 C.ar    1  UNL11       0.1390
      8 C          -1.4826    1.5443    1.1291 C.ar    1  UNL11      -0.0124
      9 C          -0.0914    1.3589    1.1047 C.ar    1  UNL11      -0.0161
     10 C           0.5497    0.4623    0.2985 C.ar    1  UNL11       0.1215
     11 O           1.9286    0.3005    0.2937 O.3     1  UNL11      -0.4874
     12 C           2.5729   -0.9009    0.0090 C.3     1  UNL11       0.1147
     13 C           3.3846   -1.2938    1.1929 C.ar    1  UNL11      -0.0077
     14 C           3.9188   -0.3417    2.0441 C.ar    1  UNL11      -0.0552
     15 C           4.6648   -0.7291    3.1306 C.ar    1  UNL11      -0.0587
     16 C           4.9120   -2.0541    3.4195 C.ar    1  UNL11      -0.0264
     17 C           4.3782   -2.9962    2.5692 C.ar    1  UNL11       0.1238
     18 F           4.5829   -4.3160    2.7951 F       1  UNL11      -0.2055
     19 C           3.6294   -2.6282    1.4776 C.ar    1  UNL11      -0.0201
     20 C          -0.2603   -0.3089   -0.5467 C.ar    1  UNL11      -0.0129
     21 C          -1.6149   -0.1498   -0.5436 C.ar    1  UNL11       0.0015
     22 C          -2.3705   -1.0749   -1.4357 C.3     1  UNL11      -0.0232
     23 C          -3.3771   -1.7864   -0.5300 C.3     1  UNL11      -0.0377
     24 C          -4.6926   -1.0969   -0.4640 C.3     1  UNL11       0.0589
     25 H          -6.1167    2.9264    0.9766 H       1  UNL11       0.5148
     26 H          -1.9294    2.2358    1.8019 H       1  UNL11       0.0659
     27 H           0.4810    1.9758    1.7740 H       1  UNL11       0.0655
     28 H           1.8299   -1.6834   -0.2562 H       1  UNL11       0.0748
     29 H           3.2652   -0.8276   -0.8733 H       1  UNL11       0.0748
     30 H           3.7424    0.7073    1.8443 H       1  UNL11       0.0621
     31 H           5.0592    0.0610    3.7643 H       1  UNL11       0.0619
     32 H           5.5086   -2.3287    4.2903 H       1  UNL11       0.0646
     33 H           3.2069   -3.3612    0.8054 H       1  UNL11       0.0650
     34 H           0.2141   -1.0223   -1.1906 H       1  UNL11       0.0658
     35 H          -1.6607   -1.8469   -1.7881 H       1  UNL11       0.0315
     36 H          -2.9379   -0.5750   -2.2209 H       1  UNL11       0.0315
     37 H          -3.5536   -2.7873   -1.0109 H       1  UNL11       0.0274
     38 H          -2.9326   -1.9979    0.4536 H       1  UNL11       0.0274
     39 H          -5.4638   -1.6920    0.0828 H       1  UNL11       0.0389
     40 H          -5.0394   -0.9730   -1.5434 H       1  UNL11       0.0389
@<TRIPOS>BOND
     1     1     2    2
     2     2     3   am
     3     3     4    1
     4     3    25    1
     5     4     5    2
     6     5     6    1
     7     6     7    1
     8     6     2   am
     9     7     8   ar
    10     8     9   ar
    11     8    26    1
    12     9    10   ar
    13     9    27    1
    14    10    11    1
    15    10    20   ar
    16    11    12    1
    17    12    13    1
    18    12    28    1
    19    12    29    1
    20    13    14   ar
    21    14    15   ar
    22    14    30    1
    23    15    16   ar
    24    15    31    1
    25    16    17   ar
    26    16    32    1
    27    17    18    1
    28    17    19   ar
    29    19    13   ar
    30    19    33    1
    31    20    21   ar
    32    20    34    1
    33    21    22    1
    34    21     7   ar
    35    22    23    1
    36    22    35    1
    37    22    36    1
    38    23    24    1
    39    23    37    1
    40    23    38    1
    41    24     5    1
    42    24    39    1
    43    24    40    1
@<TRIPOS>MOLECULE
*****
 40 43 0 0 0
SMALL
GASTEIGER

@<TRIPOS>ATOM
      1 O          -3.4896    3.3086    1.1732 O.2     1  UNL11      -0.1727
      2 C          -4.0894    2.2910    0.7983 C.2     1  UNL11       0.6254
      3 N          -5.4269    2.1790    0.7255 N.am    1  UNL11       0.0964
      4 N          -5.7665    0.9918    0.2916 N.2     1  UNL11       0.2205
      5 C          -4.6194    0.2765    0.0631 C.2     1  UNL11       0.3781
      6 N          -3.6218    1.1006    0.3848 N.am    1  UNL11      -0.0548
      7 C          -2.2415    0.7860    0.2978 C.ar    1  UNL11       0.1390
      8 C          -1.4826    1.5443    1.1291 C.ar    1  UNL11      -0.0124
      9 C          -0.0914    1.3589    1.1047 C.ar    1  UNL11      -0.0161
     10 C           0.5497    0.4623    0.2985 C.ar    1  UNL11       0.1215
     11 O           1.9286    0.3005    0.2937 O.3     1  UNL11      -0.4874
     12 C           2.8351    1.3163    0.5867 C.3     1  UNL11       0.1147
     13 C           3.6467    0.9006    1.7628 C.ar    1  UNL11      -0.0077
     14 C           4.9535    1.3297    1.9200 C.ar    1  UNL11      -0.0552
     15 C           5.6828    0.9323    3.0143 C.ar    1  UNL11      -0.0587
     16 C           5.1610    0.1061    3.9866 C.ar    1  UNL11      -0.0264
     17 C           3.8610   -0.3173    3.8244 C.ar    1  UNL11       0.1238
     18 F           3.2867   -1.1307    4.7429 F       1  UNL11      -0.2055
     19 C           3.1158    0.0695    2.7368 C.ar    1  UNL11      -0.0201
     20 C          -0.2603   -0.3089   -0.5467 C.ar    1  UNL11      -0.0129
     21 C          -1.6149   -0.1498   -0.5436 C.ar    1  UNL11       0.0015
     22 C          -2.3705   -1.0749   -1.4357 C.3     1  UNL11      -0.0232
     23 C          -3.3771   -1.7864   -0.5300 C.3     1  UNL11      -0.0377
     24 C          -4.6926   -1.0969   -0.4640 C.3     1  UNL11       0.0589
     25 H          -6.1167    2.9264    0.9766 H       1  UNL11       0.5148
     26 H          -1.9294    2.2358    1.8019 H       1  UNL11       0.0659
     27 H           0.4810    1.9758    1.7740 H       1  UNL11       0.0655
     28 H           3.4740    1.5297   -0.2970 H       1  UNL11       0.0748
     29 H           2.3341    2.2895    0.8417 H       1  UNL11       0.0748
     30 H           5.3920    1.9794    1.1736 H       1  UNL11       0.0621
     31 H           6.7032    1.2996    3.0860 H       1  UNL11       0.0619
     32 H           5.7665   -0.1912    4.8436 H       1  UNL11       0.0646
     33 H           2.0950   -0.2583    2.6022 H       1  UNL11       0.0650
     34 H           0.2141   -1.0223   -1.1906 H       1  UNL11       0.0658
     35 H          -1.6607   -1.8469   -1.7881 H       1  UNL11       0.0315
     36 H          -2.9379   -0.5750   -2.2209 H       1  UNL11       0.0315
     37 H          -3.5536   -2.7873   -1.0109 H       1  UNL11       0.0274
     38 H          -2.9326   -1.9979    0.4536 H       1  UNL11       0.0274
     39 H          -5.4638   -1.6920    0.0828 H       1  UNL11       0.0389
     40 H          -5.0394   -0.9730   -1.5434 H       1  UNL11       0.0389
@<TRIPOS>BOND
     1     1     2    2
     2     2     3   am
     3     3     4    1
     4     3    25    1
     5     4     5    2
     6     5     6    1
     7     6     7    1
     8     6     2   am
     9     7     8   ar
    10     8     9   ar
    11     8    26    1
    12     9    10   ar
    13     9    27    1
    14    10    11    1
    15    10    20   ar
    16    11    12    1
    17    12    13    1
    18    12    28    1
    19    12    29    1
    20    13    14   ar
    21    14    15   ar
    22    14    30    1
    23    15    16   ar
    24    15    31    1
    25    16    17   ar
    26    16    32    1
    27    17    18    1
    28    17    19   ar
    29    19    13   ar
    30    19    33    1
    31    20    21   ar
    32    20    34    1
    33    21    22    1
    34    21     7   ar
    35    22    23    1
    36    22    35    1
    37    22    36    1
    38    23    24    1
    39    23    37    1
    40    23    38    1
    41    24     5    1
    42    24    39    1
    43    24    40    1
@<TRIPOS>MOLECULE
*****
 40 43 0 0 0
SMALL
GASTEIGER

@<TRIPOS>ATOM
      1 O          -3.4896    3.3086    1.1732 O.2     1  UNL11      -0.1727
      2 C          -4.0894    2.2910    0.7983 C.2     1  UNL11       0.6254
      3 N          -5.4269    2.1790    0.7255 N.am    1  UNL11       0.0964
      4 N          -5.7665    0.9918    0.2916 N.2     1  UNL11       0.2205
      5 C          -4.6194    0.2765    0.0631 C.2     1  UNL11       0.3781
      6 N          -3.6218    1.1006    0.3848 N.am    1  UNL11      -0.0548
      7 C          -2.2415    0.7860    0.2978 C.ar    1  UNL11       0.1390
      8 C          -1.4826    1.5443    1.1291 C.ar    1  UNL11      -0.0124
      9 C          -0.0914    1.3589    1.1047 C.ar    1  UNL11      -0.0161
     10 C           0.5497    0.4623    0.2985 C.ar    1  UNL11       0.1215
     11 O           1.9286    0.3005    0.2937 O.3     1  UNL11      -0.4874
     12 C           2.7447    0.5218    1.4003 C.3     1  UNL11       0.1147
     13 C           4.1563    0.2648    1.0053 C.ar    1  UNL11      -0.0077
     14 C           5.2034    0.9450    1.6031 C.ar    1  UNL11      -0.0552
     15 C           6.4983    0.6905    1.2214 C.ar    1  UNL11      -0.0587
     16 C           6.8108   -0.2334    0.2473 C.ar    1  UNL11      -0.0264
     17 C           5.7651   -0.9065   -0.3435 C.ar    1  UNL11       0.1238
     18 F           6.0021   -1.8277   -1.3080 F       1  UNL11      -0.2055
     19 C           4.4636   -0.6656    0.0248 C.ar    1  UNL11      -0.0201
     20 C          -0.2603   -0.3089   -0.5467 C.ar    1  UNL11      -0.0129
     21 C          -1.6149   -0.1498   -0.5436 C.ar    1  UNL11       0.0015
     22 C          -2.3705   -1.0749   -1.4357 C.3     1  UNL11      -0.0232
     23 C          -3.3771   -1.7864   -0.5300 C.3     1  UNL11      -0.0377
     24 C          -4.6926   -1.0969   -0.4640 C.3     1  UNL11       0.0589
     25 H          -6.1167    2.9264    0.9766 H       1  UNL11       0.5148
     26 H          -1.9294    2.2358    1.8019 H       1  UNL11       0.0659
     27 H           0.4810    1.9758    1.7740 H       1  UNL11       0.0655
     28 H           2.6075    1.5572    1.7796 H       1  UNL11       0.0748
     29 H           2.5015   -0.1535    2.2652 H       1  UNL11       0.0748
     30 H           4.9906    1.6769    2.3717 H       1  UNL11       0.0621
     31 H           7.2799    1.2539    1.7245 H       1  UNL11       0.0619
     32 H           7.8496   -0.4122   -0.0330 H       1  UNL11       0.0646
     33 H           3.6373   -1.1895   -0.4338 H       1  UNL11       0.0650
     34 H           0.2141   -1.0223   -1.1906 H       1  UNL11       0.0658
     35 H          -1.6607   -1.8469   -1.7881 H       1  UNL11       0.0315
     36 H          -2.9379   -0.5750   -2.2209 H       1  UNL11       0.0315
     37 H          -3.5536   -2.7873   -1.0109 H       1  UNL11       0.0274
     38 H          -2.9326   -1.9979    0.4536 H       1  UNL11       0.0274
     39 H          -5.4638   -1.6920    0.0828 H       1  UNL11       0.0389
     40 H          -5.0394   -0.9730   -1.5434 H       1  UNL11       0.0389
@<TRIPOS>BOND
     1     1     2    2
     2     2     3   am
     3     3     4    1
     4     3    25    1
     5     4     5    2
     6     5     6    1
     7     6     7    1
     8     6     2   am
     9     7     8   ar
    10     8     9   ar
    11     8    26    1
    12     9    10   ar
    13     9    27    1
    14    10    11    1
    15    10    20   ar
    16    11    12    1
    17    12    13    1
    18    12    28    1
    19    12    29    1
    20    13    14   ar
    21    14    15   ar
    22    14    30    1
    23    15    16   ar
    24    15    31    1
    25    16    17   ar
    26    16    32    1
    27    17    18    1
    28    17    19   ar
    29    19    13   ar
    30    19    33    1
    31    20    21   ar
    32    20    34    1
    33    21    22    1
    34    21     7   ar
    35    22    23    1
    36    22    35    1
    37    22    36    1
    38    23    24    1
    39    23    37    1
    40    23    38    1
    41    24     5    1
    42    24    39    1
    43    24    40    1
@<TRIPOS>MOLECULE
*****
 40 43 0 0 0
SMALL
GASTEIGER

@<TRIPOS>ATOM
      1 O          -3.4896    3.3086    1.1732 O.2     1  UNL11      -0.1727
      2 C          -4.0894    2.2910    0.7983 C.2     1  UNL11       0.6254
      3 N          -5.4269    2.1790    0.7255 N.am    1  UNL11       0.0964
      4 N          -5.7665    0.9918    0.2916 N.2     1  UNL11       0.2205
      5 C          -4.6194    0.2765    0.0631 C.2     1  UNL11       0.3781
      6 N          -3.6218    1.1006    0.3848 N.am    1  UNL11      -0.0548
      7 C          -2.2415    0.7860    0.2978 C.ar    1  UNL11       0.1390
      8 C          -1.4826    1.5443    1.1291 C.ar    1  UNL11      -0.0124
      9 C          -0.0914    1.3589    1.1047 C.ar    1  UNL11      -0.0161
     10 C           0.5497    0.4623    0.2985 C.ar    1  UNL11       0.1215
     11 O           1.9286    0.3005    0.2937 O.3     1  UNL11      -0.4874
     12 C           2.8028    1.0259    1.0993 C.3     1  UNL11       0.1147
     13 C           3.9868    0.1751    1.3976 C.ar    1  UNL11      -0.0077
     14 C           5.2361    0.7330    1.6081 C.ar    1  UNL11      -0.0552
     15 C           6.3141   -0.0733    1.8819 C.ar    1  UNL11      -0.0587
     16 C           6.2068   -1.4454    1.9586 C.ar    1  UNL11      -0.0264
     17 C           4.9618   -1.9943    1.7482 C.ar    1  UNL11       0.1238
     18 F           4.7864   -3.3361    1.8090 F       1  UNL11      -0.2055
     19 C           3.8718   -1.2043    1.4732 C.ar    1  UNL11      -0.0201
     20 C          -0.2603   -0.3089   -0.5467 C.ar    1  UNL11      -0.0129
     21 C          -1.6149   -0.1498   -0.5436 C.ar    1  UNL11       0.0015
     22 C          -2.3705   -1.0749   -1.4357 C.3     1  UNL11      -0.0232
     23 C          -3.3771   -1.7864   -0.5300 C.3     1  UNL11      -0.0377
     24 C          -4.6926   -1.0969   -0.4640 C.3     1  UNL11       0.0589
     25 H          -6.1167    2.9264    0.9766 H       1  UNL11       0.5148
     26 H          -1.9294    2.2358    1.8019 H       1  UNL11       0.0659
     27 H           0.4810    1.9758    1.7740 H       1  UNL11       0.0655
     28 H           3.0951    1.9726    0.5962 H       1  UNL11       0.0748
     29 H           2.3437    1.3314    2.0786 H       1  UNL11       0.0748
     30 H           5.3530    1.8078    1.5547 H       1  UNL11       0.0621
     31 H           7.2704    0.4192    2.0383 H       1  UNL11       0.0619
     32 H           7.0824   -2.0576    2.1779 H       1  UNL11       0.0646
     33 H           2.8914   -1.6270    1.3069 H       1  UNL11       0.0650
     34 H           0.2141   -1.0223   -1.1906 H       1  UNL11       0.0658
     35 H          -1.6607   -1.8469   -1.7881 H       1  UNL11       0.0315
     36 H          -2.9379   -0.5750   -2.2209 H       1  UNL11       0.0315
     37 H          -3.5536   -2.7873   -1.0109 H       1  UNL11       0.0274
     38 H          -2.9326   -1.9979    0.4536 H       1  UNL11       0.0274
     39 H          -5.4638   -1.6920    0.0828 H       1  UNL11       0.0389
     40 H          -5.0394   -0.9730   -1.5434 H       1  UNL11       0.0389
@<TRIPOS>BOND
     1     1     2    2
     2     2     3   am
     3     3     4    1
     4     3    25    1
     5     4     5    2
     6     5     6    1
     7     6     7    1
     8     6     2   am
     9     7     8   ar
    10     8     9   ar
    11     8    26    1
    12     9    10   ar
    13     9    27    1
    14    10    11    1
    15    10    20   ar
    16    11    12    1
    17    12    13    1
    18    12    28    1
    19    12    29    1
    20    13    14   ar
    21    14    15   ar
    22    14    30    1
    23    15    16   ar
    24    15    31    1
    25    16    17   ar
    26    16    32    1
    27    17    18    1
    28    17    19   ar
    29    19    13   ar
    30    19    33    1
    31    20    21   ar
    32    20    34    1
    33    21    22    1
    34    21     7   ar
    35    22    23    1
    36    22    35    1
    37    22    36    1
    38    23    24    1
    39    23    37    1
    40    23    38    1
    41    24     5    1
    42    24    39    1
    43    24    40    1
@<TRIPOS>MOLECULE
*****
 40 43 0 0 0
SMALL
GASTEIGER

@<TRIPOS>ATOM
      1 O          -3.4896    3.3086    1.1732 O.2     1  UNL11      -0.1727
      2 C          -4.0894    2.2910    0.7983 C.2     1  UNL11       0.6254
      3 N          -5.4269    2.1790    0.7255 N.am    1  UNL11       0.0964
      4 N          -5.7665    0.9918    0.2916 N.2     1  UNL11       0.2205
      5 C          -4.6194    0.2765    0.0631 C.2     1  UNL11       0.3781
      6 N          -3.6218    1.1006    0.3848 N.am    1  UNL11      -0.0548
      7 C          -2.2415    0.7860    0.2978 C.ar    1  UNL11       0.1390
      8 C          -1.4826    1.5443    1.1291 C.ar    1  UNL11      -0.0124
      9 C          -0.0914    1.3589    1.1047 C.ar    1  UNL11      -0.0161
     10 C           0.5497    0.4623    0.2985 C.ar    1  UNL11       0.1215
     11 O           1.9286    0.3005    0.2937 O.3     1  UNL11      -0.4874
     12 C           2.6653   -0.0892   -0.8221 C.3     1  UNL11       0.1147
     13 C           3.3709   -1.3597   -0.5022 C.ar    1  UNL11      -0.0077
     14 C           3.6492   -2.2929   -1.4863 C.ar    1  UNL11      -0.0552
     15 C           4.3018   -3.4586   -1.1664 C.ar    1  UNL11      -0.0587
     16 C           4.7022   -3.7492    0.1202 C.ar    1  UNL11      -0.0264
     17 C           4.4226   -2.8173    1.0944 C.ar    1  UNL11       0.1238
     18 F           4.7883   -3.0400    2.3795 F       1  UNL11      -0.2055
     19 C           3.7708   -1.6457    0.7939 C.ar    1  UNL11      -0.0201
     20 C          -0.2603   -0.3089   -0.5467 C.ar    1  UNL11      -0.0129
     21 C          -1.6149   -0.1498   -0.5436 C.ar    1  UNL11       0.0015
     22 C          -2.3705   -1.0749   -1.4357 C.3     1  UNL11      -0.0232
     23 C          -3.3771   -1.7864   -0.5300 C.3     1  UNL11      -0.0377
     24 C          -4.6926   -1.0969   -0.4640 C.3     1  UNL11       0.0589
     25 H          -6.1167    2.9264    0.9766 H       1  UNL11       0.5148
     26 H          -1.9294    2.2358    1.8019 H       1  UNL11       0.0659
     27 H           0.4810    1.9758    1.7740 H       1  UNL11       0.0655
     28 H           1.9987   -0.2017   -1.7040 H       1  UNL11       0.0748
     29 H           3.4398    0.6682   -1.1212 H       1  UNL11       0.0748
     30 H           3.3476   -2.0939   -2.5066 H       1  UNL11       0.0621
     31 H           4.4937   -4.1546   -1.9789 H       1  UNL11       0.0619
     32 H           5.2186   -4.6841    0.3414 H       1  UNL11       0.0646
     33 H           3.5477   -0.9092    1.5524 H       1  UNL11       0.0650
     34 H           0.2141   -1.0223   -1.1906 H       1  UNL11       0.0658
     35 H          -1.6607   -1.8469   -1.7881 H       1  UNL11       0.0315
     36 H          -2.9379   -0.5750   -2.2209 H       1  UNL11       0.0315
     37 H          -3.5536   -2.7873   -1.0109 H       1  UNL11       0.0274
     38 H          -2.9326   -1.9979    0.4536 H       1  UNL11       0.0274
     39 H          -5.4638   -1.6920    0.0828 H       1  UNL11       0.0389
     40 H          -5.0394   -0.9730   -1.5434 H       1  UNL11       0.0389
@<TRIPOS>BOND
     1     1     2    2
     2     2     3   am
     3     3     4    1
     4     3    25    1
     5     4     5    2
     6     5     6    1
     7     6     7    1
     8     6     2   am
     9     7     8   ar
    10     8     9   ar
    11     8    26    1
    12     9    10   ar
    13     9    27    1
    14    10    11    1
    15    10    20   ar
    16    11    12    1
    17    12    13    1
    18    12    28    1
    19    12    29    1
    20    13    14   ar
    21    14    15   ar
    22    14    30    1
    23    15    16   ar
    24    15    31    1
    25    16    17   ar
    26    16    32    1
    27    17    18    1
    28    17    19   ar
    29    19    13   ar
    30    19    33    1
    31    20    21   ar
    32    20    34    1
    33    21    22    1
    34    21     7   ar
    35    22    23    1
    36    22    35    1
    37    22    36    1
    38    23    24    1
    39    23    37    1
    40    23    38    1
    41    24     5    1
    42    24    39    1
    43    24    40    1
@<TRIPOS>MOLECULE
*****
 40 43 0 0 0
SMALL
GASTEIGER

@<TRIPOS>ATOM
      1 O          -3.4896    3.3086    1.1732 O.2     1  UNL11      -0.1727
      2 C          -4.0894    2.2910    0.7983 C.2     1  UNL11       0.6254
      3 N          -5.4269    2.1790    0.7255 N.am    1  UNL11       0.0964
      4 N          -5.7665    0.9918    0.2916 N.2     1  UNL11       0.2205
      5 C          -4.6194    0.2765    0.0631 C.2     1  UNL11       0.3781
      6 N          -3.6218    1.1006    0.3848 N.am    1  UNL11      -0.0548
      7 C          -2.2415    0.7860    0.2978 C.ar    1  UNL11       0.1390
      8 C          -1.4826    1.5443    1.1291 C.ar    1  UNL11      -0.0124
      9 C          -0.0914    1.3589    1.1047 C.ar    1  UNL11      -0.0161
     10 C           0.5497    0.4623    0.2985 C.ar    1  UNL11       0.1215
     11 O           1.9286    0.3005    0.2937 O.3     1  UNL11      -0.4874
     12 C           2.5729   -0.9009    0.0090 C.3     1  UNL11       0.1147
     13 C           2.7620   -1.6487    1.2817 C.ar    1  UNL11      -0.0077
     14 C           1.8757   -1.5065    2.3356 C.ar    1  UNL11      -0.0552
     15 C           2.0715   -2.2076    3.5006 C.ar    1  UNL11      -0.0587
     16 C           3.1353   -3.0671    3.6730 C.ar    1  UNL11      -0.0264
     17 C           4.0132   -3.2042    2.6213 C.ar    1  UNL11       0.1238
     18 F           5.0801   -4.0325    2.7242 F       1  UNL11      -0.2055
     19 C           3.8342   -2.5115    1.4484 C.ar    1  UNL11      -0.0201
     20 C          -0.2603   -0.3089   -0.5467 C.ar    1  UNL11      -0.0129
     21 C          -1.6149   -0.1498   -0.5436 C.ar    1  UNL11       0.0015
     22 C          -2.3705   -1.0749   -1.4357 C.3     1  UNL11      -0.0232
     23 C          -3.3771   -1.7864   -0.5300 C.3     1  UNL11      -0.0377
     24 C          -4.6926   -1.0969   -0.4640 C.3     1  UNL11       0.0589
     25 H          -6.1167    2.9264    0.9766 H       1  UNL11       0.5148
     26 H          -1.9294    2.2358    1.8019 H       1  UNL11       0.0659
     27 H           0.4810    1.9758    1.7740 H       1  UNL11       0.0655
     28 H           1.9846   -1.4887   -0.7279 H       1  UNL11       0.0748
     29 H           3.5849   -0.7547   -0.4573 H       1  UNL11       0.0748
     30 H           1.0301   -0.8390    2.2311 H       1  UNL11       0.0621
     31 H           1.3443   -2.0568    4.2943 H       1  UNL11       0.0619
     32 H           3.2625   -3.6092    4.6107 H       1  UNL11       0.0646
     33 H           4.5184   -2.6134    0.6183 H       1  UNL11       0.0650
     34 H           0.2141   -1.0223   -1.1906 H       1  UNL11       0.0658
     35 H          -1.6607   -1.8469   -1.7881 H       1  UNL11       0.0315
     36 H          -2.9379   -0.5750   -2.2209 H       1  UNL11       0.0315
     37 H          -3.5536   -2.7873   -1.0109 H       1  UNL11       0.0274
     38 H          -2.9326   -1.9979    0.4536 H       1  UNL11       0.0274
     39 H          -5.4638   -1.6920    0.0828 H       1  UNL11       0.0389
     40 H          -5.0394   -0.9730   -1.5434 H       1  UNL11       0.0389
@<TRIPOS>BOND
     1     1     2    2
     2     2     3   am
     3     3     4    1
     4     3    25    1
     5     4     5    2
     6     5     6    1
     7     6     7    1
     8     6     2   am
     9     7     8   ar
    10     8     9   ar
    11     8    26    1
    12     9    10   ar
    13     9    27    1
    14    10    11    1
    15    10    20   ar
    16    11    12    1
    17    12    13    1
    18    12    28    1
    19    12    29    1
    20    13    14   ar
    21    14    15   ar
    22    14    30    1
    23    15    16   ar
    24    15    31    1
    25    16    17   ar
    26    16    32    1
    27    17    18    1
    28    17    19   ar
    29    19    13   ar
    30    19    33    1
    31    20    21   ar
    32    20    34    1
    33    21    22    1
    34    21     7   ar
    35    22    23    1
    36    22    35    1
    37    22    36    1
    38    23    24    1
    39    23    37    1
    40    23    38    1
    41    24     5    1
    42    24    39    1
    43    24    40    1
@<TRIPOS>MOLECULE
*****
 40 43 0 0 0
SMALL
GASTEIGER

@<TRIPOS>ATOM
      1 O          -3.4896    3.3086    1.1732 O.2     1  UNL11      -0.1727
      2 C          -4.0894    2.2910    0.7983 C.2     1  UNL11       0.6254
      3 N          -5.4269    2.1790    0.7255 N.am    1  UNL11       0.0964
      4 N          -5.7665    0.9918    0.2916 N.2     1  UNL11       0.2205
      5 C          -4.6194    0.2765    0.0631 C.2     1  UNL11       0.3781
      6 N          -3.6218    1.1006    0.3848 N.am    1  UNL11      -0.0548
      7 C          -2.2415    0.7860    0.2978 C.ar    1  UNL11       0.1390
      8 C          -1.4826    1.5443    1.1291 C.ar    1  UNL11      -0.0124
      9 C          -0.0914    1.3589    1.1047 C.ar    1  UNL11      -0.0161
     10 C           0.5497    0.4623    0.2985 C.ar    1  UNL11       0.1215
     11 O           1.9286    0.3005    0.2937 O.3     1  UNL11      -0.4874
     12 C           2.6653   -0.0892   -0.8221 C.3     1  UNL11       0.1147
     13 C           2.7635   -1.5741   -0.8284 C.ar    1  UNL11      -0.0077
     14 C           3.9913   -2.2118   -0.7801 C.ar    1  UNL11      -0.0552
     15 C           4.0563   -3.5840   -0.7870 C.ar    1  UNL11      -0.0587
     16 C           2.9283   -4.3744   -0.8412 C.ar    1  UNL11      -0.0264
     17 C           1.7103   -3.7343   -0.8892 C.ar    1  UNL11       0.1238
     18 F           0.5623   -4.4512   -0.9438 F       1  UNL11      -0.2055
     19 C           1.6250   -2.3631   -0.8831 C.ar    1  UNL11      -0.0201
     20 C          -0.2603   -0.3089   -0.5467 C.ar    1  UNL11      -0.0129
     21 C          -1.6149   -0.1498   -0.5436 C.ar    1  UNL11       0.0015
     22 C          -2.3705   -1.0749   -1.4357 C.3     1  UNL11      -0.0232
     23 C          -3.3771   -1.7864   -0.5300 C.3     1  UNL11      -0.0377
     24 C          -4.6926   -1.0969   -0.4640 C.3     1  UNL11       0.0589
     25 H          -6.1167    2.9264    0.9766 H       1  UNL11       0.5148
     26 H          -1.9294    2.2358    1.8019 H       1  UNL11       0.0659
     27 H           0.4810    1.9758    1.7740 H       1  UNL11       0.0655
     28 H           2.1902    0.2938   -1.7507 H       1  UNL11       0.0748
     29 H           3.7103    0.3244   -0.8225 H       1  UNL11       0.0748
     30 H           4.8957   -1.6188   -0.7368 H       1  UNL11       0.0621
     31 H           5.0465   -4.0303   -0.7476 H       1  UNL11       0.0619
     32 H           3.0141   -5.4617   -0.8453 H       1  UNL11       0.0646
     33 H           0.6732   -1.8530   -0.9205 H       1  UNL11       0.0650
     34 H           0.2141   -1.0223   -1.1906 H       1  UNL11       0.0658
     35 H          -1.6607   -1.8469   -1.7881 H       1  UNL11       0.0315
     36 H          -2.9379   -0.5750   -2.2209 H       1  UNL11       0.0315
     37 H          -3.5536   -2.7873   -1.0109 H       1  UNL11       0.0274
     38 H          -2.9326   -1.9979    0.4536 H       1  UNL11       0.0274
     39 H          -5.4638   -1.6920    0.0828 H       1  UNL11       0.0389
     40 H          -5.0394   -0.9730   -1.5434 H       1  UNL11       0.0389
@<TRIPOS>BOND
     1     1     2    2
     2     2     3   am
     3     3     4    1
     4     3    25    1
     5     4     5    2
     6     5     6    1
     7     6     7    1
     8     6     2   am
     9     7     8   ar
    10     8     9   ar
    11     8    26    1
    12     9    10   ar
    13     9    27    1
    14    10    11    1
    15    10    20   ar
    16    11    12    1
    17    12    13    1
    18    12    28    1
    19    12    29    1
    20    13    14   ar
    21    14    15   ar
    22    14    30    1
    23    15    16   ar
    24    15    31    1
    25    16    17   ar
    26    16    32    1
    27    17    18    1
    28    17    19   ar
    29    19    13   ar
    30    19    33    1
    31    20    21   ar
    32    20    34    1
    33    21    22    1
    34    21     7   ar
    35    22    23    1
    36    22    35    1
    37    22    36    1
    38    23    24    1
    39    23    37    1
    40    23    38    1
    41    24     5    1
    42    24    39    1
    43    24    40    1
@<TRIPOS>MOLECULE
*****
 40 43 0 0 0
SMALL
GASTEIGER

@<TRIPOS>ATOM
      1 O          -3.4896    3.3086    1.1732 O.2     1  UNL11      -0.1727
      2 C          -4.0894    2.2910    0.7983 C.2     1  UNL11       0.6254
      3 N          -5.4269    2.1790    0.7255 N.am    1  UNL11       0.0964
      4 N          -5.7665    0.9918    0.2916 N.2     1  UNL11       0.2205
      5 C          -4.6194    0.2765    0.0631 C.2     1  UNL11       0.3781
      6 N          -3.6218    1.1006    0.3848 N.am    1  UNL11      -0.0548
      7 C          -2.2415    0.7860    0.2978 C.ar    1  UNL11       0.1390
      8 C          -1.4826    1.5443    1.1291 C.ar    1  UNL11      -0.0124
      9 C          -0.0914    1.3589    1.1047 C.ar    1  UNL11      -0.0161
     10 C           0.5497    0.4623    0.2985 C.ar    1  UNL11       0.1215
     11 O           1.9286    0.3005    0.2937 O.3     1  UNL11      -0.4874
     12 C           2.5729   -0.9009    0.0090 C.3     1  UNL11       0.1147
     13 C           3.4490   -0.6978   -1.1767 C.ar    1  UNL11      -0.0077
     14 C           3.7169   -1.7329   -2.0561 C.ar    1  UNL11      -0.0552
     15 C           4.5288   -1.5209   -3.1438 C.ar    1  UNL11      -0.0587
     16 C           5.1029   -0.2956   -3.4065 C.ar    1  UNL11      -0.0264
     17 C           4.8327    0.7298   -2.5283 C.ar    1  UNL11       0.1238
     18 F           5.3648    1.9594   -2.7276 F       1  UNL11      -0.2055
     19 C           4.0232    0.5371   -1.4351 C.ar    1  UNL11      -0.0201
     20 C          -0.2603   -0.3089   -0.5467 C.ar    1  UNL11      -0.0129
     21 C          -1.6149   -0.1498   -0.5436 C.ar    1  UNL11       0.0015
     22 C          -2.3705   -1.0749   -1.4357 C.3     1  UNL11      -0.0232
     23 C          -3.3771   -1.7864   -0.5300 C.3     1  UNL11      -0.0377
     24 C          -4.6926   -1.0969   -0.4640 C.3     1  UNL11       0.0589
     25 H          -6.1167    2.9264    0.9766 H       1  UNL11       0.5148
     26 H          -1.9294    2.2358    1.8019 H       1  UNL11       0.0659
     27 H           0.4810    1.9758    1.7740 H       1  UNL11       0.0655
     28 H           3.1524   -1.2463    0.8920 H       1  UNL11       0.0748
     29 H           1.8582   -1.7345   -0.2305 H       1  UNL11       0.0748
     30 H           3.2809   -2.7073   -1.8772 H       1  UNL11       0.0621
     31 H           4.7045   -2.3693   -3.8001 H       1  UNL11       0.0619
     32 H           5.7431   -0.1600   -4.2790 H       1  UNL11       0.0646
     33 H           3.8061    1.3365   -0.7411 H       1  UNL11       0.0650
     34 H           0.2141   -1.0223   -1.1906 H       1  UNL11       0.0658
     35 H          -1.6607   -1.8469   -1.7881 H       1  UNL11       0.0315
     36 H          -2.9379   -0.5750   -2.2209 H       1  UNL11       0.0315
     37 H          -3.5536   -2.7873   -1.0109 H       1  UNL11       0.0274
     38 H          -2.9326   -1.9979    0.4536 H       1  UNL11       0.0274
     39 H          -5.4638   -1.6920    0.0828 H       1  UNL11       0.0389
     40 H          -5.0394   -0.9730   -1.5434 H       1  UNL11       0.0389
@<TRIPOS>BOND
     1     1     2    2
     2     2     3   am
     3     3     4    1
     4     3    25    1
     5     4     5    2
     6     5     6    1
     7     6     7    1
     8     6     2   am
     9     7     8   ar
    10     8     9   ar
    11     8    26    1
    12     9    10   ar
    13     9    27    1
    14    10    11    1
    15    10    20   ar
    16    11    12    1
    17    12    13    1
    18    12    28    1
    19    12    29    1
    20    13    14   ar
    21    14    15   ar
    22    14    30    1
    23    15    16   ar
    24    15    31    1
    25    16    17   ar
    26    16    32    1
    27    17    18    1
    28    17    19   ar
    29    19    13   ar
    30    19    33    1
    31    20    21   ar
    32    20    34    1
    33    21    22    1
    34    21     7   ar
    35    22    23    1
    36    22    35    1
    37    22    36    1
    38    23    24    1
    39    23    37    1
    40    23    38    1
    41    24     5    1
    42    24    39    1
    43    24    40    1
@<TRIPOS>MOLECULE
*****
 40 43 0 0 0
SMALL
GASTEIGER

@<TRIPOS>ATOM
      1 O          -3.4896    3.3086    1.1732 O.2     1  UNL11      -0.1727
      2 C          -4.0894    2.2910    0.7983 C.2     1  UNL11       0.6254
      3 N          -5.4269    2.1790    0.7255 N.am    1  UNL11       0.0964
      4 N          -5.7665    0.9918    0.2916 N.2     1  UNL11       0.2205
      5 C          -4.6194    0.2765    0.0631 C.2     1  UNL11       0.3781
      6 N          -3.6218    1.1006    0.3848 N.am    1  UNL11      -0.0548
      7 C          -2.2415    0.7860    0.2978 C.ar    1  UNL11       0.1390
      8 C          -1.4826    1.5443    1.1291 C.ar    1  UNL11      -0.0124
      9 C          -0.0914    1.3589    1.1047 C.ar    1  UNL11      -0.0161
     10 C           0.5497    0.4623    0.2985 C.ar    1  UNL11       0.1215
     11 O           1.9286    0.3005    0.2937 O.3     1  UNL11      -0.4874
     12 C           2.8351    1.3163    0.5867 C.3     1  UNL11       0.1147
     13 C           2.6269    2.4287   -0.3797 C.ar    1  UNL11      -0.0077
     14 C           1.6583    2.3501   -1.3657 C.ar    1  UNL11      -0.0552
     15 C           1.4850    3.3901   -2.2465 C.ar    1  UNL11      -0.0587
     16 C           2.2494    4.5359   -2.1926 C.ar    1  UNL11      -0.0264
     17 C           3.2110    4.6079   -1.2099 C.ar    1  UNL11       0.1238
     18 F           3.9970    5.7058   -1.1008 F       1  UNL11      -0.2055
     19 C           3.3992    3.5782   -0.3199 C.ar    1  UNL11      -0.0201
     20 C          -0.2603   -0.3089   -0.5467 C.ar    1  UNL11      -0.0129
     21 C          -1.6149   -0.1498   -0.5436 C.ar    1  UNL11       0.0015
     22 C          -2.3705   -1.0749   -1.4357 C.3     1  UNL11      -0.0232
     23 C          -3.3771   -1.7864   -0.5300 C.3     1  UNL11      -0.0377
     24 C          -4.6926   -1.0969   -0.4640 C.3     1  UNL11       0.0589
     25 H          -6.1167    2.9264    0.9766 H       1  UNL11       0.5148
     26 H          -1.9294    2.2358    1.8019 H       1  UNL11       0.0659
     27 H           0.4810    1.9758    1.7740 H       1  UNL11       0.0655
     28 H           2.7066    1.6566    1.6367 H       1  UNL11       0.0748
     29 H           3.9057    0.9846    0.5036 H       1  UNL11       0.0748
     30 H           1.0416    1.4632   -1.4342 H       1  UNL11       0.0621
     31 H           0.7101    3.2737   -2.9996 H       1  UNL11       0.0619
     32 H           2.0867    5.3438   -2.9069 H       1  UNL11       0.0646
     33 H           4.1516    3.6268    0.4541 H       1  UNL11       0.0650
     34 H           0.2141   -1.0223   -1.1906 H       1  UNL11       0.0658
     35 H          -1.6607   -1.8469   -1.7881 H       1  UNL11       0.0315
     36 H          -2.9379   -0.5750   -2.2209 H       1  UNL11       0.0315
     37 H          -3.5536   -2.7873   -1.0109 H       1  UNL11       0.0274
     38 H          -2.9326   -1.9979    0.4536 H       1  UNL11       0.0274
     39 H          -5.4638   -1.6920    0.0828 H       1  UNL11       0.0389
     40 H          -5.0394   -0.9730   -1.5434 H       1  UNL11       0.0389
@<TRIPOS>BOND
     1     1     2    2
     2     2     3   am
     3     3     4    1
     4     3    25    1
     5     4     5    2
     6     5     6    1
     7     6     7    1
     8     6     2   am
     9     7     8   ar
    10     8     9   ar
    11     8    26    1
    12     9    10   ar
    13     9    27    1
    14    10    11    1
    15    10    20   ar
    16    11    12    1
    17    12    13    1
    18    12    28    1
    19    12    29    1
    20    13    14   ar
    21    14    15   ar
    22    14    30    1
    23    15    16   ar
    24    15    31    1
    25    16    17   ar
    26    16    32    1
    27    17    18    1
    28    17    19   ar
    29    19    13   ar
    30    19    33    1
    31    20    21   ar
    32    20    34    1
    33    21    22    1
    34    21     7   ar
    35    22    23    1
    36    22    35    1
    37    22    36    1
    38    23    24    1
    39    23    37    1
    40    23    38    1
    41    24     5    1
    42    24    39    1
    43    24    40    1
@<TRIPOS>MOLECULE
*****
 40 43 0 0 0
SMALL
GASTEIGER

@<TRIPOS>ATOM
      1 O          -3.4896    3.3086    1.1732 O.2     1  UNL11      -0.1727
      2 C          -4.0894    2.2910    0.7983 C.2     1  UNL11       0.6254
      3 N          -5.4269    2.1790    0.7255 N.am    1  UNL11       0.0964
      4 N          -5.7665    0.9918    0.2916 N.2     1  UNL11       0.2205
      5 C          -4.6194    0.2765    0.0631 C.2     1  UNL11       0.3781
      6 N          -3.6218    1.1006    0.3848 N.am    1  UNL11      -0.0548
      7 C          -2.2415    0.7860    0.2978 C.ar    1  UNL11       0.1390
      8 C          -1.4826    1.5443    1.1291 C.ar    1  UNL11      -0.0124
      9 C          -0.0914    1.3589    1.1047 C.ar    1  UNL11      -0.0161
     10 C           0.5497    0.4623    0.2985 C.ar    1  UNL11       0.1215
     11 O           1.9286    0.3005    0.2937 O.3     1  UNL11      -0.4874
     12 C           2.6653   -0.0892   -0.8221 C.3     1  UNL11       0.1147
     13 C           4.1001   -0.1711   -0.4359 C.ar    1  UNL11      -0.0077
     14 C           4.9390    0.9235   -0.5572 C.ar    1  UNL11      -0.0552
     15 C           6.2601    0.8234   -0.1941 C.ar    1  UNL11      -0.0587
     16 C           6.8022   -0.3449    0.2973 C.ar    1  UNL11      -0.0264
     17 C           5.9630   -1.4299    0.4155 C.ar    1  UNL11       0.1238
     18 F           6.4312   -2.6085    0.8914 F       1  UNL11      -0.2055
     19 C           4.6389   -1.3491    0.0576 C.ar    1  UNL11      -0.0201
     20 C          -0.2603   -0.3089   -0.5467 C.ar    1  UNL11      -0.0129
     21 C          -1.6149   -0.1498   -0.5436 C.ar    1  UNL11       0.0015
     22 C          -2.3705   -1.0749   -1.4357 C.3     1  UNL11      -0.0232
     23 C          -3.3771   -1.7864   -0.5300 C.3     1  UNL11      -0.0377
     24 C          -4.6926   -1.0969   -0.4640 C.3     1  UNL11       0.0589
     25 H          -6.1167    2.9264    0.9766 H       1  UNL11       0.5148
     26 H          -1.9294    2.2358    1.8019 H       1  UNL11       0.0659
     27 H           0.4810    1.9758    1.7740 H       1  UNL11       0.0655
     28 H           2.2901   -1.0597   -1.2121 H       1  UNL11       0.0748
     29 H           2.5803    0.6353   -1.6771 H       1  UNL11       0.0748
     30 H           4.5432    1.8554   -0.9399 H       1  UNL11       0.0621
     31 H           6.8718    1.7141   -0.3107 H       1  UNL11       0.0619
     32 H           7.8555   -0.3916    0.5767 H       1  UNL11       0.0646
     33 H           3.9736   -2.1958    0.1472 H       1  UNL11       0.0650
     34 H           0.2141   -1.0223   -1.1906 H       1  UNL11       0.0658
     35 H          -1.6607   -1.8469   -1.7881 H       1  UNL11       0.0315
     36 H          -2.9379   -0.5750   -2.2209 H       1  UNL11       0.0315
     37 H          -3.5536   -2.7873   -1.0109 H       1  UNL11       0.0274
     38 H          -2.9326   -1.9979    0.4536 H       1  UNL11       0.0274
     39 H          -5.4638   -1.6920    0.0828 H       1  UNL11       0.0389
     40 H          -5.0394   -0.9730   -1.5434 H       1  UNL11       0.0389
@<TRIPOS>BOND
     1     1     2    2
     2     2     3   am
     3     3     4    1
     4     3    25    1
     5     4     5    2
     6     5     6    1
     7     6     7    1
     8     6     2   am
     9     7     8   ar
    10     8     9   ar
    11     8    26    1
    12     9    10   ar
    13     9    27    1
    14    10    11    1
    15    10    20   ar
    16    11    12    1
    17    12    13    1
    18    12    28    1
    19    12    29    1
    20    13    14   ar
    21    14    15   ar
    22    14    30    1
    23    15    16   ar
    24    15    31    1
    25    16    17   ar
    26    16    32    1
    27    17    18    1
    28    17    19   ar
    29    19    13   ar
    30    19    33    1
    31    20    21   ar
    32    20    34    1
    33    21    22    1
    34    21     7   ar
    35    22    23    1
    36    22    35    1
    37    22    36    1
    38    23    24    1
    39    23    37    1
    40    23    38    1
    41    24     5    1
    42    24    39    1
    43    24    40    1
@<TRIPOS>MOLECULE
*****
 40 43 0 0 0
SMALL
GASTEIGER

@<TRIPOS>ATOM
      1 O          -3.4896    3.3086    1.1732 O.2     1  UNL11      -0.1727
      2 C          -4.0894    2.2910    0.7983 C.2     1  UNL11       0.6254
      3 N          -5.4269    2.1790    0.7255 N.am    1  UNL11       0.0964
      4 N          -5.7665    0.9918    0.2916 N.2     1  UNL11       0.2205
      5 C          -4.6194    0.2765    0.0631 C.2     1  UNL11       0.3781
      6 N          -3.6218    1.1006    0.3848 N.am    1  UNL11      -0.0548
      7 C          -2.2415    0.7860    0.2978 C.ar    1  UNL11       0.1390
      8 C          -1.4826    1.5443    1.1291 C.ar    1  UNL11      -0.0124
      9 C          -0.0914    1.3589    1.1047 C.ar    1  UNL11      -0.0161
     10 C           0.5497    0.4623    0.2985 C.ar    1  UNL11       0.1215
     11 O           1.9286    0.3005    0.2937 O.3     1  UNL11      -0.4874
     12 C           2.7447    0.5218    1.4003 C.3     1  UNL11       0.1147
     13 C           3.4534   -0.7457    1.7257 C.ar    1  UNL11      -0.0077
     14 C           3.8145   -1.0518    3.0266 C.ar    1  UNL11      -0.0552
     15 C           4.4683   -2.2282    3.3021 C.ar    1  UNL11      -0.0587
     16 C           4.7890   -3.1401    2.3194 C.ar    1  UNL11      -0.0264
     17 C           4.4274   -2.8299    1.0276 C.ar    1  UNL11       0.1238
     18 F           4.7124   -3.6820    0.0139 F       1  UNL11      -0.2055
     19 C           3.7731   -1.6584    0.7325 C.ar    1  UNL11      -0.0201
     20 C          -0.2603   -0.3089   -0.5467 C.ar    1  UNL11      -0.0129
     21 C          -1.6149   -0.1498   -0.5436 C.ar    1  UNL11       0.0015
     22 C          -2.3705   -1.0749   -1.4357 C.3     1  UNL11      -0.0232
     23 C          -3.3771   -1.7864   -0.5300 C.3     1  UNL11      -0.0377
     24 C          -4.6926   -1.0969   -0.4640 C.3     1  UNL11       0.0589
     25 H          -6.1167    2.9264    0.9766 H       1  UNL11       0.5148
     26 H          -1.9294    2.2358    1.8019 H       1  UNL11       0.0659
     27 H           0.4810    1.9758    1.7740 H       1  UNL11       0.0655
     28 H           3.4579    1.3485    1.1942 H       1  UNL11       0.0748
     29 H           2.1688    0.8374    2.3124 H       1  UNL11       0.0748
     30 H           3.5766   -0.3561    3.8209 H       1  UNL11       0.0621
     31 H           4.7273   -2.4162    4.3408 H       1  UNL11       0.0619
     32 H           5.3087   -4.0653    2.5712 H       1  UNL11       0.0646
     33 H           3.4857   -1.4074   -0.2785 H       1  UNL11       0.0650
     34 H           0.2141   -1.0223   -1.1906 H       1  UNL11       0.0658
     35 H          -1.6607   -1.8469   -1.7881 H       1  UNL11       0.0315
     36 H          -2.9379   -0.5750   -2.2209 H       1  UNL11       0.0315
     37 H          -3.5536   -2.7873   -1.0109 H       1  UNL11       0.0274
     38 H          -2.9326   -1.9979    0.4536 H       1  UNL11       0.0274
     39 H          -5.4638   -1.6920    0.0828 H       1  UNL11       0.0389
     40 H          -5.0394   -0.9730   -1.5434 H       1  UNL11       0.0389
@<TRIPOS>BOND
     1     1     2    2
     2     2     3   am
     3     3     4    1
     4     3    25    1
     5     4     5    2
     6     5     6    1
     7     6     7    1
     8     6     2   am
     9     7     8   ar
    10     8     9   ar
    11     8    26    1
    12     9    10   ar
    13     9    27    1
    14    10    11    1
    15    10    20   ar
    16    11    12    1
    17    12    13    1
    18    12    28    1
    19    12    29    1
    20    13    14   ar
    21    14    15   ar
    22    14    30    1
    23    15    16   ar
    24    15    31    1
    25    16    17   ar
    26    16    32    1
    27    17    18    1
    28    17    19   ar
    29    19    13   ar
    30    19    33    1
    31    20    21   ar
    32    20    34    1
    33    21    22    1
    34    21     7   ar
    35    22    23    1
    36    22    35    1
    37    22    36    1
    38    23    24    1
    39    23    37    1
    40    23    38    1
    41    24     5    1
    42    24    39    1
    43    24    40    1
@<TRIPOS>MOLECULE
*****
 40 43 0 0 0
SMALL
GASTEIGER

@<TRIPOS>ATOM
      1 O          -3.4896    3.3086    1.1732 O.2     1  UNL11      -0.1727
      2 C          -4.0894    2.2910    0.7983 C.2     1  UNL11       0.6254
      3 N          -5.4269    2.1790    0.7255 N.am    1  UNL11       0.0964
      4 N          -5.7665    0.9918    0.2916 N.2     1  UNL11       0.2205
      5 C          -4.6194    0.2765    0.0631 C.2     1  UNL11       0.3781
      6 N          -3.6218    1.1006    0.3848 N.am    1  UNL11      -0.0548
      7 C          -2.2415    0.7860    0.2978 C.ar    1  UNL11       0.1390
      8 C          -1.4826    1.5443    1.1291 C.ar    1  UNL11      -0.0124
      9 C          -0.0914    1.3589    1.1047 C.ar    1  UNL11      -0.0161
     10 C           0.5497    0.4623    0.2985 C.ar    1  UNL11       0.1215
     11 O           1.9286    0.3005    0.2937 O.3     1  UNL11      -0.4874
     12 C           2.7447    0.5218    1.4003 C.3     1  UNL11       0.1147
     13 C           2.3317   -0.4090    2.4856 C.ar    1  UNL11      -0.0077
     14 C           1.7797   -1.6456    2.1983 C.ar    1  UNL11      -0.0552
     15 C           1.4062   -2.4876    3.2175 C.ar    1  UNL11      -0.0587
     16 C           1.5594   -2.1500    4.5452 C.ar    1  UNL11      -0.0264
     17 C           2.1089   -0.9188    4.8244 C.ar    1  UNL11       0.1238
     18 F           2.2873   -0.5243    6.1079 F       1  UNL11      -0.2055
     19 C           2.4886   -0.0631    3.8187 C.ar    1  UNL11      -0.0201
     20 C          -0.2603   -0.3089   -0.5467 C.ar    1  UNL11      -0.0129
     21 C          -1.6149   -0.1498   -0.5436 C.ar    1  UNL11       0.0015
     22 C          -2.3705   -1.0749   -1.4357 C.3     1  UNL11      -0.0232
     23 C          -3.3771   -1.7864   -0.5300 C.3     1  UNL11      -0.0377
     24 C          -4.6926   -1.0969   -0.4640 C.3     1  UNL11       0.0589
     25 H          -6.1167    2.9264    0.9766 H       1  UNL11       0.5148
     26 H          -1.9294    2.2358    1.8019 H       1  UNL11       0.0659
     27 H           0.4810    1.9758    1.7740 H       1  UNL11       0.0655
     28 H           3.8124    0.3828    1.1258 H       1  UNL11       0.0748
     29 H           2.6671    1.5699    1.7984 H       1  UNL11       0.0748
     30 H           1.6464   -1.9401    1.1653 H       1  UNL11       0.0621
     31 H           0.9784   -3.4455    2.9333 H       1  UNL11       0.0619
     32 H           1.2526   -2.8412    5.3310 H       1  UNL11       0.0646
     33 H           2.9206    0.9047    4.0293 H       1  UNL11       0.0650
     34 H           0.2141   -1.0223   -1.1906 H       1  UNL11       0.0658
     35 H          -1.6607   -1.8469   -1.7881 H       1  UNL11       0.0315
     36 H          -2.9379   -0.5750   -2.2209 H       1  UNL11       0.0315
     37 H          -3.5536   -2.7873   -1.0109 H       1  UNL11       0.0274
     38 H          -2.9326   -1.9979    0.4536 H       1  UNL11       0.0274
     39 H          -5.4638   -1.6920    0.0828 H       1  UNL11       0.0389
     40 H          -5.0394   -0.9730   -1.5434 H       1  UNL11       0.0389
@<TRIPOS>BOND
     1     1     2    2
     2     2     3   am
     3     3     4    1
     4     3    25    1
     5     4     5    2
     6     5     6    1
     7     6     7    1
     8     6     2   am
     9     7     8   ar
    10     8     9   ar
    11     8    26    1
    12     9    10   ar
    13     9    27    1
    14    10    11    1
    15    10    20   ar
    16    11    12    1
    17    12    13    1
    18    12    28    1
    19    12    29    1
    20    13    14   ar
    21    14    15   ar
    22    14    30    1
    23    15    16   ar
    24    15    31    1
    25    16    17   ar
    26    16    32    1
    27    17    18    1
    28    17    19   ar
    29    19    13   ar
    30    19    33    1
    31    20    21   ar
    32    20    34    1
    33    21    22    1
    34    21     7   ar
    35    22    23    1
    36    22    35    1
    37    22    36    1
    38    23    24    1
    39    23    37    1
    40    23    38    1
    41    24     5    1
    42    24    39    1
    43    24    40    1
@<TRIPOS>MOLECULE
*****
 40 43 0 0 0
SMALL
GASTEIGER

@<TRIPOS>ATOM
      1 O          -3.4896    3.3086    1.1732 O.2     1  UNL11      -0.1727
      2 C          -4.0894    2.2910    0.7983 C.2     1  UNL11       0.6254
      3 N          -5.4269    2.1790    0.7255 N.am    1  UNL11       0.0964
      4 N          -5.7665    0.9918    0.2916 N.2     1  UNL11       0.2205
      5 C          -4.6194    0.2765    0.0631 C.2     1  UNL11       0.3781
      6 N          -3.6218    1.1006    0.3848 N.am    1  UNL11      -0.0548
      7 C          -2.2415    0.7860    0.2978 C.ar    1  UNL11       0.1390
      8 C          -1.4826    1.5443    1.1291 C.ar    1  UNL11      -0.0124
      9 C          -0.0914    1.3589    1.1047 C.ar    1  UNL11      -0.0161
     10 C           0.5497    0.4623    0.2985 C.ar    1  UNL11       0.1215
     11 O           1.9286    0.3005    0.2937 O.3     1  UNL11      -0.4874
     12 C           2.5729   -0.9009    0.0090 C.3     1  UNL11       0.1147
     13 C           2.7620   -1.6487    1.2817 C.ar    1  UNL11      -0.0077
     14 C           1.8069   -2.5410    1.7378 C.ar    1  UNL11      -0.0552
     15 C           2.0041   -3.2197    2.9158 C.ar    1  UNL11      -0.0587
     16 C           3.1365   -3.0493    3.6832 C.ar    1  UNL11      -0.0264
     17 C           4.0826   -2.1606    3.2243 C.ar    1  UNL11       0.1238
     18 F           5.2188   -1.9458    3.9298 F       1  UNL11      -0.2055
     19 C           3.9032   -1.4726    2.0486 C.ar    1  UNL11      -0.0201
     20 C          -0.2603   -0.3089   -0.5467 C.ar    1  UNL11      -0.0129
     21 C          -1.6149   -0.1498   -0.5436 C.ar    1  UNL11       0.0015
     22 C          -2.3705   -1.0749   -1.4357 C.3     1  UNL11      -0.0232
     23 C          -3.3771   -1.7864   -0.5300 C.3     1  UNL11      -0.0377
     24 C          -4.6926   -1.0969   -0.4640 C.3     1  UNL11       0.0589
     25 H          -6.1167    2.9264    0.9766 H       1  UNL11       0.5148
     26 H          -1.9294    2.2358    1.8019 H       1  UNL11       0.0659
     27 H           0.4810    1.9758    1.7740 H       1  UNL11       0.0655
     28 H           1.9846   -1.4887   -0.7279 H       1  UNL11       0.0748
     29 H           3.5849   -0.7547   -0.4573 H       1  UNL11       0.0748
     30 H           0.9065   -2.6970    1.1577 H       1  UNL11       0.0621
     31 H           1.2212   -3.9072    3.2252 H       1  UNL11       0.0619
     32 H           3.2628   -3.6036    4.6140 H       1  UNL11       0.0646
     33 H           4.6407   -0.7734    1.6814 H       1  UNL11       0.0650
     34 H           0.2141   -1.0223   -1.1906 H       1  UNL11       0.0658
     35 H          -1.6607   -1.8469   -1.7881 H       1  UNL11       0.0315
     36 H          -2.9379   -0.5750   -2.2209 H       1  UNL11       0.0315
     37 H          -3.5536   -2.7873   -1.0109 H       1  UNL11       0.0274
     38 H          -2.9326   -1.9979    0.4536 H       1  UNL11       0.0274
     39 H          -5.4638   -1.6920    0.0828 H       1  UNL11       0.0389
     40 H          -5.0394   -0.9730   -1.5434 H       1  UNL11       0.0389
@<TRIPOS>BOND
     1     1     2    2
     2     2     3   am
     3     3     4    1
     4     3    25    1
     5     4     5    2
     6     5     6    1
     7     6     7    1
     8     6     2   am
     9     7     8   ar
    10     8     9   ar
    11     8    26    1
    12     9    10   ar
    13     9    27    1
    14    10    11    1
    15    10    20   ar
    16    11    12    1
    17    12    13    1
    18    12    28    1
    19    12    29    1
    20    13    14   ar
    21    14    15   ar
    22    14    30    1
    23    15    16   ar
    24    15    31    1
    25    16    17   ar
    26    16    32    1
    27    17    18    1
    28    17    19   ar
    29    19    13   ar
    30    19    33    1
    31    20    21   ar
    32    20    34    1
    33    21    22    1
    34    21     7   ar
    35    22    23    1
    36    22    35    1
    37    22    36    1
    38    23    24    1
    39    23    37    1
    40    23    38    1
    41    24     5    1
    42    24    39    1
    43    24    40    1
@<TRIPOS>MOLECULE
*****
 40 43 0 0 0
SMALL
GASTEIGER

@<TRIPOS>ATOM
      1 O          -3.4896    3.3086    1.1732 O.2     1  UNL11      -0.1727
      2 C          -4.0894    2.2910    0.7983 C.2     1  UNL11       0.6254
      3 N          -5.4269    2.1790    0.7255 N.am    1  UNL11       0.0964
      4 N          -5.7665    0.9918    0.2916 N.2     1  UNL11       0.2205
      5 C          -4.6194    0.2765    0.0631 C.2     1  UNL11       0.3781
      6 N          -3.6218    1.1006    0.3848 N.am    1  UNL11      -0.0548
      7 C          -2.2415    0.7860    0.2978 C.ar    1  UNL11       0.1390
      8 C          -1.4826    1.5443    1.1291 C.ar    1  UNL11      -0.0124
      9 C          -0.0914    1.3589    1.1047 C.ar    1  UNL11      -0.0161
     10 C           0.5497    0.4623    0.2985 C.ar    1  UNL11       0.1215
     11 O           1.9286    0.3005    0.2937 O.3     1  UNL11      -0.4874
     12 C           2.6653   -0.0892   -0.8221 C.3     1  UNL11       0.1147
     13 C           2.7635   -1.5741   -0.8284 C.ar    1  UNL11      -0.0077
     14 C           1.7663   -2.3611   -0.2780 C.ar    1  UNL11      -0.0552
     15 C           1.8796   -3.7300   -0.2959 C.ar    1  UNL11      -0.0587
     16 C           2.9664   -4.3719   -0.8499 C.ar    1  UNL11      -0.0264
     17 C           3.9547   -3.5838   -1.3956 C.ar    1  UNL11       0.1238
     18 F           5.0500   -4.1502   -1.9563 F       1  UNL11      -0.2055
     19 C           3.8593   -2.2132   -1.3872 C.ar    1  UNL11      -0.0201
     20 C          -0.2603   -0.3089   -0.5467 C.ar    1  UNL11      -0.0129
     21 C          -1.6149   -0.1498   -0.5436 C.ar    1  UNL11       0.0015
     22 C          -2.3705   -1.0749   -1.4357 C.3     1  UNL11      -0.0232
     23 C          -3.3771   -1.7864   -0.5300 C.3     1  UNL11      -0.0377
     24 C          -4.6926   -1.0969   -0.4640 C.3     1  UNL11       0.0589
     25 H          -6.1167    2.9264    0.9766 H       1  UNL11       0.5148
     26 H          -1.9294    2.2358    1.8019 H       1  UNL11       0.0659
     27 H           0.4810    1.9758    1.7740 H       1  UNL11       0.0655
     28 H           2.1902    0.2938   -1.7507 H       1  UNL11       0.0748
     29 H           3.7103    0.3244   -0.8225 H       1  UNL11       0.0748
     30 H           0.8999   -1.8869    0.1647 H       1  UNL11       0.0621
     31 H           1.0670   -4.2973    0.1505 H       1  UNL11       0.0619
     32 H           3.0262   -5.4609   -0.8480 H       1  UNL11       0.0646
     33 H           4.6304   -1.5875   -1.8133 H       1  UNL11       0.0650
     34 H           0.2141   -1.0223   -1.1906 H       1  UNL11       0.0658
     35 H          -1.6607   -1.8469   -1.7881 H       1  UNL11       0.0315
     36 H          -2.9379   -0.5750   -2.2209 H       1  UNL11       0.0315
     37 H          -3.5536   -2.7873   -1.0109 H       1  UNL11       0.0274
     38 H          -2.9326   -1.9979    0.4536 H       1  UNL11       0.0274
     39 H          -5.4638   -1.6920    0.0828 H       1  UNL11       0.0389
     40 H          -5.0394   -0.9730   -1.5434 H       1  UNL11       0.0389
@<TRIPOS>BOND
     1     1     2    2
     2     2     3   am
     3     3     4    1
     4     3    25    1
     5     4     5    2
     6     5     6    1
     7     6     7    1
     8     6     2   am
     9     7     8   ar
    10     8     9   ar
    11     8    26    1
    12     9    10   ar
    13     9    27    1
    14    10    11    1
    15    10    20   ar
    16    11    12    1
    17    12    13    1
    18    12    28    1
    19    12    29    1
    20    13    14   ar
    21    14    15   ar
    22    14    30    1
    23    15    16   ar
    24    15    31    1
    25    16    17   ar
    26    16    32    1
    27    17    18    1
    28    17    19   ar
    29    19    13   ar
    30    19    33    1
    31    20    21   ar
    32    20    34    1
    33    21    22    1
    34    21     7   ar
    35    22    23    1
    36    22    35    1
    37    22    36    1
    38    23    24    1
    39    23    37    1
    40    23    38    1
    41    24     5    1
    42    24    39    1
    43    24    40    1
@<TRIPOS>MOLECULE
*****
 40 43 0 0 0
SMALL
GASTEIGER

@<TRIPOS>ATOM
      1 O          -3.4896    3.3086    1.1732 O.2     1  UNL11      -0.1727
      2 C          -4.0894    2.2910    0.7983 C.2     1  UNL11       0.6254
      3 N          -5.4269    2.1790    0.7255 N.am    1  UNL11       0.0964
      4 N          -5.7665    0.9918    0.2916 N.2     1  UNL11       0.2205
      5 C          -4.6194    0.2765    0.0631 C.2     1  UNL11       0.3781
      6 N          -3.6218    1.1006    0.3848 N.am    1  UNL11      -0.0548
      7 C          -2.2415    0.7860    0.2978 C.ar    1  UNL11       0.1390
      8 C          -1.4826    1.5443    1.1291 C.ar    1  UNL11      -0.0124
      9 C          -0.0914    1.3589    1.1047 C.ar    1  UNL11      -0.0161
     10 C           0.5497    0.4623    0.2985 C.ar    1  UNL11       0.1215
     11 O           1.9286    0.3005    0.2937 O.3     1  UNL11      -0.4874
     12 C           2.5729   -0.9009    0.0090 C.3     1  UNL11       0.1147
     13 C           2.1210   -1.9237    0.9910 C.ar    1  UNL11      -0.0077
     14 C           1.0212   -2.7252    0.7369 C.ar    1  UNL11      -0.0552
     15 C           0.6232   -3.6625    1.6590 C.ar    1  UNL11      -0.0587
     16 C           1.2843   -3.8463    2.8545 C.ar    1  UNL11      -0.0264
     17 C           2.3771   -3.0461    3.1015 C.ar    1  UNL11       0.1238
     18 F           3.0721   -3.1746    4.2571 F       1  UNL11      -0.2055
     19 C           2.7904   -2.1033    2.1915 C.ar    1  UNL11      -0.0201
     20 C          -0.2603   -0.3089   -0.5467 C.ar    1  UNL11      -0.0129
     21 C          -1.6149   -0.1498   -0.5436 C.ar    1  UNL11       0.0015
     22 C          -2.3705   -1.0749   -1.4357 C.3     1  UNL11      -0.0232
     23 C          -3.3771   -1.7864   -0.5300 C.3     1  UNL11      -0.0377
     24 C          -4.6926   -1.0969   -0.4640 C.3     1  UNL11       0.0589
     25 H          -6.1167    2.9264    0.9766 H       1  UNL11       0.5148
     26 H          -1.9294    2.2358    1.8019 H       1  UNL11       0.0659
     27 H           0.4810    1.9758    1.7740 H       1  UNL11       0.0655
     28 H           2.3605   -1.2142   -1.0357 H       1  UNL11       0.0748
     29 H           3.6918   -0.8251    0.0820 H       1  UNL11       0.0748
     30 H           0.4809   -2.6051   -0.1933 H       1  UNL11       0.0621
     31 H          -0.2465   -4.2634    1.4065 H       1  UNL11       0.0619
     32 H           0.9428   -4.5994    3.5657 H       1  UNL11       0.0646
     33 H           3.6469   -1.4714    2.3776 H       1  UNL11       0.0650
     34 H           0.2141   -1.0223   -1.1906 H       1  UNL11       0.0658
     35 H          -1.6607   -1.8469   -1.7881 H       1  UNL11       0.0315
     36 H          -2.9379   -0.5750   -2.2209 H       1  UNL11       0.0315
     37 H          -3.5536   -2.7873   -1.0109 H       1  UNL11       0.0274
     38 H          -2.9326   -1.9979    0.4536 H       1  UNL11       0.0274
     39 H          -5.4638   -1.6920    0.0828 H       1  UNL11       0.0389
     40 H          -5.0394   -0.9730   -1.5434 H       1  UNL11       0.0389
@<TRIPOS>BOND
     1     1     2    2
     2     2     3   am
     3     3     4    1
     4     3    25    1
     5     4     5    2
     6     5     6    1
     7     6     7    1
     8     6     2   am
     9     7     8   ar
    10     8     9   ar
    11     8    26    1
    12     9    10   ar
    13     9    27    1
    14    10    11    1
    15    10    20   ar
    16    11    12    1
    17    12    13    1
    18    12    28    1
    19    12    29    1
    20    13    14   ar
    21    14    15   ar
    22    14    30    1
    23    15    16   ar
    24    15    31    1
    25    16    17   ar
    26    16    32    1
    27    17    18    1
    28    17    19   ar
    29    19    13   ar
    30    19    33    1
    31    20    21   ar
    32    20    34    1
    33    21    22    1
    34    21     7   ar
    35    22    23    1
    36    22    35    1
    37    22    36    1
    38    23    24    1
    39    23    37    1
    40    23    38    1
    41    24     5    1
    42    24    39    1
    43    24    40    1
@<TRIPOS>MOLECULE
*****
 40 43 0 0 0
SMALL
GASTEIGER

@<TRIPOS>ATOM
      1 O          -3.4896    3.3086    1.1732 O.2     1  UNL11      -0.1727
      2 C          -4.0894    2.2910    0.7983 C.2     1  UNL11       0.6254
      3 N          -5.4269    2.1790    0.7255 N.am    1  UNL11       0.0964
      4 N          -5.7665    0.9918    0.2916 N.2     1  UNL11       0.2205
      5 C          -4.6194    0.2765    0.0631 C.2     1  UNL11       0.3781
      6 N          -3.6218    1.1006    0.3848 N.am    1  UNL11      -0.0548
      7 C          -2.2415    0.7860    0.2978 C.ar    1  UNL11       0.1390
      8 C          -1.4826    1.5443    1.1291 C.ar    1  UNL11      -0.0124
      9 C          -0.0914    1.3589    1.1047 C.ar    1  UNL11      -0.0161
     10 C           0.5497    0.4623    0.2985 C.ar    1  UNL11       0.1215
     11 O           1.9286    0.3005    0.2937 O.3     1  UNL11      -0.4874
     12 C           2.7447    0.5218    1.4003 C.3     1  UNL11       0.1147
     13 C           2.5767    1.9347    1.8364 C.ar    1  UNL11      -0.0077
     14 C           1.6166    2.2880    2.7690 C.ar    1  UNL11      -0.0552
     15 C           1.4805    3.5991    3.1558 C.ar    1  UNL11      -0.0587
     16 C           2.2751    4.6035    2.6459 C.ar    1  UNL11      -0.0264
     17 C           3.2280    4.2458    1.7188 C.ar    1  UNL11       0.1238
     18 F           4.0422    5.1835    1.1777 F       1  UNL11      -0.2055
     19 C           3.3791    2.9399    1.3195 C.ar    1  UNL11      -0.0201
     20 C          -0.2603   -0.3089   -0.5467 C.ar    1  UNL11      -0.0129
     21 C          -1.6149   -0.1498   -0.5436 C.ar    1  UNL11       0.0015
     22 C          -2.3705   -1.0749   -1.4357 C.3     1  UNL11      -0.0232
     23 C          -3.3771   -1.7864   -0.5300 C.3     1  UNL11      -0.0377
     24 C          -4.6926   -1.0969   -0.4640 C.3     1  UNL11       0.0589
     25 H          -6.1167    2.9264    0.9766 H       1  UNL11       0.5148
     26 H          -1.9294    2.2358    1.8019 H       1  UNL11       0.0659
     27 H           0.4810    1.9758    1.7740 H       1  UNL11       0.0655
     28 H           2.4918   -0.1910    2.2145 H       1  UNL11       0.0748
     29 H           3.8344    0.3573    1.1800 H       1  UNL11       0.0748
     30 H           0.9769    1.5220    3.1882 H       1  UNL11       0.0621
     31 H           0.7105    3.8185    3.8908 H       1  UNL11       0.0619
     32 H           2.1416    5.6351    2.9739 H       1  UNL11       0.0646
     33 H           4.1244    2.6508    0.5925 H       1  UNL11       0.0650
     34 H           0.2141   -1.0223   -1.1906 H       1  UNL11       0.0658
     35 H          -1.6607   -1.8469   -1.7881 H       1  UNL11       0.0315
     36 H          -2.9379   -0.5750   -2.2209 H       1  UNL11       0.0315
     37 H          -3.5536   -2.7873   -1.0109 H       1  UNL11       0.0274
     38 H          -2.9326   -1.9979    0.4536 H       1  UNL11       0.0274
     39 H          -5.4638   -1.6920    0.0828 H       1  UNL11       0.0389
     40 H          -5.0394   -0.9730   -1.5434 H       1  UNL11       0.0389
@<TRIPOS>BOND
     1     1     2    2
     2     2     3   am
     3     3     4    1
     4     3    25    1
     5     4     5    2
     6     5     6    1
     7     6     7    1
     8     6     2   am
     9     7     8   ar
    10     8     9   ar
    11     8    26    1
    12     9    10   ar
    13     9    27    1
    14    10    11    1
    15    10    20   ar
    16    11    12    1
    17    12    13    1
    18    12    28    1
    19    12    29    1
    20    13    14   ar
    21    14    15   ar
    22    14    30    1
    23    15    16   ar
    24    15    31    1
    25    16    17   ar
    26    16    32    1
    27    17    18    1
    28    17    19   ar
    29    19    13   ar
    30    19    33    1
    31    20    21   ar
    32    20    34    1
    33    21    22    1
    34    21     7   ar
    35    22    23    1
    36    22    35    1
    37    22    36    1
    38    23    24    1
    39    23    37    1
    40    23    38    1
    41    24     5    1
    42    24    39    1
    43    24    40    1
@<TRIPOS>MOLECULE
*****
 40 43 0 0 0
SMALL
GASTEIGER

@<TRIPOS>ATOM
      1 O          -3.4896    3.3086    1.1732 O.2     1  UNL11      -0.1727
      2 C          -4.0894    2.2910    0.7983 C.2     1  UNL11       0.6254
      3 N          -5.4269    2.1790    0.7255 N.am    1  UNL11       0.0964
      4 N          -5.7665    0.9918    0.2916 N.2     1  UNL11       0.2205
      5 C          -4.6194    0.2765    0.0631 C.2     1  UNL11       0.3781
      6 N          -3.6218    1.1006    0.3848 N.am    1  UNL11      -0.0548
      7 C          -2.2415    0.7860    0.2978 C.ar    1  UNL11       0.1390
      8 C          -1.4826    1.5443    1.1291 C.ar    1  UNL11      -0.0124
      9 C          -0.0914    1.3589    1.1047 C.ar    1  UNL11      -0.0161
     10 C           0.5497    0.4623    0.2985 C.ar    1  UNL11       0.1215
     11 O           1.9286    0.3005    0.2937 O.3     1  UNL11      -0.4874
     12 C           2.7447    0.5218    1.4003 C.3     1  UNL11       0.1147
     13 C           3.9207   -0.3857    1.3091 C.ar    1  UNL11      -0.0077
     14 C           4.1831   -1.3208    2.2957 C.ar    1  UNL11      -0.0552
     15 C           5.2750   -2.1475    2.1892 C.ar    1  UNL11      -0.0587
     16 C           6.1425   -2.0877    1.1196 C.ar    1  UNL11      -0.0264
     17 C           5.8762   -1.1557    0.1418 C.ar    1  UNL11       0.1238
     18 F           6.6885   -1.0439   -0.9364 F       1  UNL11      -0.2055
     19 C           4.7891   -0.3202    0.2307 C.ar    1  UNL11      -0.0201
     20 C          -0.2603   -0.3089   -0.5467 C.ar    1  UNL11      -0.0129
     21 C          -1.6149   -0.1498   -0.5436 C.ar    1  UNL11       0.0015
     22 C          -2.3705   -1.0749   -1.4357 C.3     1  UNL11      -0.0232
     23 C          -3.3771   -1.7864   -0.5300 C.3     1  UNL11      -0.0377
     24 C          -4.6926   -1.0969   -0.4640 C.3     1  UNL11       0.0589
     25 H          -6.1167    2.9264    0.9766 H       1  UNL11       0.5148
     26 H          -1.9294    2.2358    1.8019 H       1  UNL11       0.0659
     27 H           0.4810    1.9758    1.7740 H       1  UNL11       0.0655
     28 H           3.0529    1.5884    1.4449 H       1  UNL11       0.0748
     29 H           2.2254    0.3144    2.3752 H       1  UNL11       0.0748
     30 H           3.5204   -1.3925    3.1485 H       1  UNL11       0.0621
     31 H           5.4320   -2.8621    2.9930 H       1  UNL11       0.0619
     32 H           7.0007   -2.7585    1.0649 H       1  UNL11       0.0646
     33 H           4.5730    0.4138   -0.5322 H       1  UNL11       0.0650
     34 H           0.2141   -1.0223   -1.1906 H       1  UNL11       0.0658
     35 H          -1.6607   -1.8469   -1.7881 H       1  UNL11       0.0315
     36 H          -2.9379   -0.5750   -2.2209 H       1  UNL11       0.0315
     37 H          -3.5536   -2.7873   -1.0109 H       1  UNL11       0.0274
     38 H          -2.9326   -1.9979    0.4536 H       1  UNL11       0.0274
     39 H          -5.4638   -1.6920    0.0828 H       1  UNL11       0.0389
     40 H          -5.0394   -0.9730   -1.5434 H       1  UNL11       0.0389
@<TRIPOS>BOND
     1     1     2    2
     2     2     3   am
     3     3     4    1
     4     3    25    1
     5     4     5    2
     6     5     6    1
     7     6     7    1
     8     6     2   am
     9     7     8   ar
    10     8     9   ar
    11     8    26    1
    12     9    10   ar
    13     9    27    1
    14    10    11    1
    15    10    20   ar
    16    11    12    1
    17    12    13    1
    18    12    28    1
    19    12    29    1
    20    13    14   ar
    21    14    15   ar
    22    14    30    1
    23    15    16   ar
    24    15    31    1
    25    16    17   ar
    26    16    32    1
    27    17    18    1
    28    17    19   ar
    29    19    13   ar
    30    19    33    1
    31    20    21   ar
    32    20    34    1
    33    21    22    1
    34    21     7   ar
    35    22    23    1
    36    22    35    1
    37    22    36    1
    38    23    24    1
    39    23    37    1
    40    23    38    1
    41    24     5    1
    42    24    39    1
    43    24    40    1
@<TRIPOS>MOLECULE
*****
 40 43 0 0 0
SMALL
GASTEIGER

@<TRIPOS>ATOM
      1 O          -3.4896    3.3086    1.1732 O.2     1  UNL11      -0.1727
      2 C          -4.0894    2.2910    0.7983 C.2     1  UNL11       0.6254
      3 N          -5.4269    2.1790    0.7255 N.am    1  UNL11       0.0964
      4 N          -5.7665    0.9918    0.2916 N.2     1  UNL11       0.2205
      5 C          -4.6194    0.2765    0.0631 C.2     1  UNL11       0.3781
      6 N          -3.6218    1.1006    0.3848 N.am    1  UNL11      -0.0548
      7 C          -2.2415    0.7860    0.2978 C.ar    1  UNL11       0.1390
      8 C          -1.4826    1.5443    1.1291 C.ar    1  UNL11      -0.0124
      9 C          -0.0914    1.3589    1.1047 C.ar    1  UNL11      -0.0161
     10 C           0.5497    0.4623    0.2985 C.ar    1  UNL11       0.1215
     11 O           1.9286    0.3005    0.2937 O.3     1  UNL11      -0.4874
     12 C           2.5729   -0.9009    0.0090 C.3     1  UNL11       0.1147
     13 C           2.1210   -1.9237    0.9910 C.ar    1  UNL11      -0.0077
     14 C           2.9536   -2.9575    1.3842 C.ar    1  UNL11      -0.0552
     15 C           2.5137   -3.8898    2.2922 C.ar    1  UNL11      -0.0587
     16 C           1.2512   -3.8423    2.8435 C.ar    1  UNL11      -0.0264
     17 C           0.4279   -2.8118    2.4485 C.ar    1  UNL11       0.1238
     18 F          -0.8254   -2.7061    2.9515 F       1  UNL11      -0.2055
     19 C           0.8499   -1.8700    1.5415 C.ar    1  UNL11      -0.0201
     20 C          -0.2603   -0.3089   -0.5467 C.ar    1  UNL11      -0.0129
     21 C          -1.6149   -0.1498   -0.5436 C.ar    1  UNL11       0.0015
     22 C          -2.3705   -1.0749   -1.4357 C.3     1  UNL11      -0.0232
     23 C          -3.3771   -1.7864   -0.5300 C.3     1  UNL11      -0.0377
     24 C          -4.6926   -1.0969   -0.4640 C.3     1  UNL11       0.0589
     25 H          -6.1167    2.9264    0.9766 H       1  UNL11       0.5148
     26 H          -1.9294    2.2358    1.8019 H       1  UNL11       0.0659
     27 H           0.4810    1.9758    1.7740 H       1  UNL11       0.0655
     28 H           2.3605   -1.2142   -1.0357 H       1  UNL11       0.0748
     29 H           3.6918   -0.8251    0.0820 H       1  UNL11       0.0748
     30 H           3.9512   -3.0223    0.9692 H       1  UNL11       0.0621
     31 H           3.2097   -4.6791    2.5642 H       1  UNL11       0.0619
     32 H           0.9323   -4.5982    3.5622 H       1  UNL11       0.0646
     33 H           0.2102   -1.0583    1.2264 H       1  UNL11       0.0650
     34 H           0.2141   -1.0223   -1.1906 H       1  UNL11       0.0658
     35 H          -1.6607   -1.8469   -1.7881 H       1  UNL11       0.0315
     36 H          -2.9379   -0.5750   -2.2209 H       1  UNL11       0.0315
     37 H          -3.5536   -2.7873   -1.0109 H       1  UNL11       0.0274
     38 H          -2.9326   -1.9979    0.4536 H       1  UNL11       0.0274
     39 H          -5.4638   -1.6920    0.0828 H       1  UNL11       0.0389
     40 H          -5.0394   -0.9730   -1.5434 H       1  UNL11       0.0389
@<TRIPOS>BOND
     1     1     2    2
     2     2     3   am
     3     3     4    1
     4     3    25    1
     5     4     5    2
     6     5     6    1
     7     6     7    1
     8     6     2   am
     9     7     8   ar
    10     8     9   ar
    11     8    26    1
    12     9    10   ar
    13     9    27    1
    14    10    11    1
    15    10    20   ar
    16    11    12    1
    17    12    13    1
    18    12    28    1
    19    12    29    1
    20    13    14   ar
    21    14    15   ar
    22    14    30    1
    23    15    16   ar
    24    15    31    1
    25    16    17   ar
    26    16    32    1
    27    17    18    1
    28    17    19   ar
    29    19    13   ar
    30    19    33    1
    31    20    21   ar
    32    20    34    1
    33    21    22    1
    34    21     7   ar
    35    22    23    1
    36    22    35    1
    37    22    36    1
    38    23    24    1
    39    23    37    1
    40    23    38    1
    41    24     5    1
    42    24    39    1
    43    24    40    1
@<TRIPOS>MOLECULE
*****
 40 43 0 0 0
SMALL
GASTEIGER

@<TRIPOS>ATOM
      1 O          -3.4896    3.3086    1.1732 O.2     1  UNL11      -0.1727
      2 C          -4.0894    2.2910    0.7983 C.2     1  UNL11       0.6254
      3 N          -5.4269    2.1790    0.7255 N.am    1  UNL11       0.0964
      4 N          -5.7665    0.9918    0.2916 N.2     1  UNL11       0.2205
      5 C          -4.6194    0.2765    0.0631 C.2     1  UNL11       0.3781
      6 N          -3.6218    1.1006    0.3848 N.am    1  UNL11      -0.0548
      7 C          -2.2415    0.7860    0.2978 C.ar    1  UNL11       0.1390
      8 C          -1.4826    1.5443    1.1291 C.ar    1  UNL11      -0.0124
      9 C          -0.0914    1.3589    1.1047 C.ar    1  UNL11      -0.0161
     10 C           0.5497    0.4623    0.2985 C.ar    1  UNL11       0.1215
     11 O           1.9286    0.3005    0.2937 O.3     1  UNL11      -0.4874
     12 C           2.8351    1.3163    0.5867 C.3     1  UNL11       0.1147
     13 C           2.6269    2.4287   -0.3797 C.ar    1  UNL11      -0.0077
     14 C           3.6432    2.8466   -1.2218 C.ar    1  UNL11      -0.0552
     15 C           3.4268    3.8758   -2.1057 C.ar    1  UNL11      -0.0587
     16 C           2.2154    4.5273   -2.1951 C.ar    1  UNL11      -0.0264
     17 C           1.2088    4.1072   -1.3550 C.ar    1  UNL11       0.1238
     18 F          -0.0065    4.7044   -1.3910 F       1  UNL11      -0.2055
     19 C           1.4061    3.0797   -0.4644 C.ar    1  UNL11      -0.0201
     20 C          -0.2603   -0.3089   -0.5467 C.ar    1  UNL11      -0.0129
     21 C          -1.6149   -0.1498   -0.5436 C.ar    1  UNL11       0.0015
     22 C          -2.3705   -1.0749   -1.4357 C.3     1  UNL11      -0.0232
     23 C          -3.3771   -1.7864   -0.5300 C.3     1  UNL11      -0.0377
     24 C          -4.6926   -1.0969   -0.4640 C.3     1  UNL11       0.0589
     25 H          -6.1167    2.9264    0.9766 H       1  UNL11       0.5148
     26 H          -1.9294    2.2358    1.8019 H       1  UNL11       0.0659
     27 H           0.4810    1.9758    1.7740 H       1  UNL11       0.0655
     28 H           2.7066    1.6566    1.6367 H       1  UNL11       0.0748
     29 H           3.9057    0.9846    0.5036 H       1  UNL11       0.0748
     30 H           4.6063    2.3548   -1.1758 H       1  UNL11       0.0621
     31 H           4.2602    4.1618   -2.7422 H       1  UNL11       0.0619
     32 H           2.0759    5.3411   -2.9077 H       1  UNL11       0.0646
     33 H           0.6214    2.7439    0.1983 H       1  UNL11       0.0650
     34 H           0.2141   -1.0223   -1.1906 H       1  UNL11       0.0658
     35 H          -1.6607   -1.8469   -1.7881 H       1  UNL11       0.0315
     36 H          -2.9379   -0.5750   -2.2209 H       1  UNL11       0.0315
     37 H          -3.5536   -2.7873   -1.0109 H       1  UNL11       0.0274
     38 H          -2.9326   -1.9979    0.4536 H       1  UNL11       0.0274
     39 H          -5.4638   -1.6920    0.0828 H       1  UNL11       0.0389
     40 H          -5.0394   -0.9730   -1.5434 H       1  UNL11       0.0389
@<TRIPOS>BOND
     1     1     2    2
     2     2     3   am
     3     3     4    1
     4     3    25    1
     5     4     5    2
     6     5     6    1
     7     6     7    1
     8     6     2   am
     9     7     8   ar
    10     8     9   ar
    11     8    26    1
    12     9    10   ar
    13     9    27    1
    14    10    11    1
    15    10    20   ar
    16    11    12    1
    17    12    13    1
    18    12    28    1
    19    12    29    1
    20    13    14   ar
    21    14    15   ar
    22    14    30    1
    23    15    16   ar
    24    15    31    1
    25    16    17   ar
    26    16    32    1
    27    17    18    1
    28    17    19   ar
    29    19    13   ar
    30    19    33    1
    31    20    21   ar
    32    20    34    1
    33    21    22    1
    34    21     7   ar
    35    22    23    1
    36    22    35    1
    37    22    36    1
    38    23    24    1
    39    23    37    1
    40    23    38    1
    41    24     5    1
    42    24    39    1
    43    24    40    1
@<TRIPOS>MOLECULE
*****
 40 43 0 0 0
SMALL
GASTEIGER

@<TRIPOS>ATOM
      1 O          -3.4896    3.3086    1.1732 O.2     1  UNL11      -0.1727
      2 C          -4.0894    2.2910    0.7983 C.2     1  UNL11       0.6254
      3 N          -5.4269    2.1790    0.7255 N.am    1  UNL11       0.0964
      4 N          -5.7665    0.9918    0.2916 N.2     1  UNL11       0.2205
      5 C          -4.6194    0.2765    0.0631 C.2     1  UNL11       0.3781
      6 N          -3.6218    1.1006    0.3848 N.am    1  UNL11      -0.0548
      7 C          -2.2415    0.7860    0.2978 C.ar    1  UNL11       0.1390
      8 C          -1.4826    1.5443    1.1291 C.ar    1  UNL11      -0.0124
      9 C          -0.0914    1.3589    1.1047 C.ar    1  UNL11      -0.0161
     10 C           0.5497    0.4623    0.2985 C.ar    1  UNL11       0.1215
     11 O           1.9286    0.3005    0.2937 O.3     1  UNL11      -0.4874
     12 C           2.8351    1.3163    0.5867 C.3     1  UNL11       0.1147
     13 C           3.1853    2.0166   -0.6788 C.ar    1  UNL11      -0.0077
     14 C           4.4918    2.0641   -1.1343 C.ar    1  UNL11      -0.0552
     15 C           4.7903    2.7167   -2.3056 C.ar    1  UNL11      -0.0587
     16 C           3.8260    3.3416   -3.0669 C.ar    1  UNL11      -0.0264
     17 C           2.5287    3.2910   -2.6086 C.ar    1  UNL11       0.1238
     18 F           1.5321    3.8845   -3.3084 F       1  UNL11      -0.2055
     19 C           2.2105    2.6431   -1.4396 C.ar    1  UNL11      -0.0201
     20 C          -0.2603   -0.3089   -0.5467 C.ar    1  UNL11      -0.0129
     21 C          -1.6149   -0.1498   -0.5436 C.ar    1  UNL11       0.0015
     22 C          -2.3705   -1.0749   -1.4357 C.3     1  UNL11      -0.0232
     23 C          -3.3771   -1.7864   -0.5300 C.3     1  UNL11      -0.0377
     24 C          -4.6926   -1.0969   -0.4640 C.3     1  UNL11       0.0589
     25 H          -6.1167    2.9264    0.9766 H       1  UNL11       0.5148
     26 H          -1.9294    2.2358    1.8019 H       1  UNL11       0.0659
     27 H           0.4810    1.9758    1.7740 H       1  UNL11       0.0655
     28 H           2.4028    2.0147    1.3352 H       1  UNL11       0.0748
     29 H           3.7883    0.9338    1.0430 H       1  UNL11       0.0748
     30 H           5.2720    1.5828   -0.5589 H       1  UNL11       0.0621
     31 H           5.8324    2.7220   -2.6147 H       1  UNL11       0.0619
     32 H           4.0959    3.8515   -3.9925 H       1  UNL11       0.0646
     33 H           1.1950    2.5987   -1.0730 H       1  UNL11       0.0650
     34 H           0.2141   -1.0223   -1.1906 H       1  UNL11       0.0658
     35 H          -1.6607   -1.8469   -1.7881 H       1  UNL11       0.0315
     36 H          -2.9379   -0.5750   -2.2209 H       1  UNL11       0.0315
     37 H          -3.5536   -2.7873   -1.0109 H       1  UNL11       0.0274
     38 H          -2.9326   -1.9979    0.4536 H       1  UNL11       0.0274
     39 H          -5.4638   -1.6920    0.0828 H       1  UNL11       0.0389
     40 H          -5.0394   -0.9730   -1.5434 H       1  UNL11       0.0389
@<TRIPOS>BOND
     1     1     2    2
     2     2     3   am
     3     3     4    1
     4     3    25    1
     5     4     5    2
     6     5     6    1
     7     6     7    1
     8     6     2   am
     9     7     8   ar
    10     8     9   ar
    11     8    26    1
    12     9    10   ar
    13     9    27    1
    14    10    11    1
    15    10    20   ar
    16    11    12    1
    17    12    13    1
    18    12    28    1
    19    12    29    1
    20    13    14   ar
    21    14    15   ar
    22    14    30    1
    23    15    16   ar
    24    15    31    1
    25    16    17   ar
    26    16    32    1
    27    17    18    1
    28    17    19   ar
    29    19    13   ar
    30    19    33    1
    31    20    21   ar
    32    20    34    1
    33    21    22    1
    34    21     7   ar
    35    22    23    1
    36    22    35    1
    37    22    36    1
    38    23    24    1
    39    23    37    1
    40    23    38    1
    41    24     5    1
    42    24    39    1
    43    24    40    1
@<TRIPOS>MOLECULE
*****
 40 43 0 0 0
SMALL
GASTEIGER

@<TRIPOS>ATOM
      1 O          -3.4896    3.3086    1.1732 O.2     1  UNL11      -0.1727
      2 C          -4.0894    2.2910    0.7983 C.2     1  UNL11       0.6254
      3 N          -5.4269    2.1790    0.7255 N.am    1  UNL11       0.0964
      4 N          -5.7665    0.9918    0.2916 N.2     1  UNL11       0.2205
      5 C          -4.6194    0.2765    0.0631 C.2     1  UNL11       0.3781
      6 N          -3.6218    1.1006    0.3848 N.am    1  UNL11      -0.0548
      7 C          -2.2415    0.7860    0.2978 C.ar    1  UNL11       0.1390
      8 C          -1.4826    1.5443    1.1291 C.ar    1  UNL11      -0.0124
      9 C          -0.0914    1.3589    1.1047 C.ar    1  UNL11      -0.0161
     10 C           0.5497    0.4623    0.2985 C.ar    1  UNL11       0.1215
     11 O           1.9286    0.3005    0.2937 O.3     1  UNL11      -0.4874
     12 C           2.7447    0.5218    1.4003 C.3     1  UNL11       0.1147
     13 C           3.1839    1.9436    1.3867 C.ar    1  UNL11      -0.0077
     14 C           2.4496    2.9271    2.0269 C.ar    1  UNL11      -0.0552
     15 C           2.8755    4.2329    2.0004 C.ar    1  UNL11      -0.0587
     16 C           4.0281    4.6185    1.3501 C.ar    1  UNL11      -0.0264
     17 C           4.7540    3.6358    0.7153 C.ar    1  UNL11       0.1238
     18 F           5.8967    3.9462    0.0574 F       1  UNL11      -0.2055
     19 C           4.3442    2.3245    0.7308 C.ar    1  UNL11      -0.0201
     20 C          -0.2603   -0.3089   -0.5467 C.ar    1  UNL11      -0.0129
     21 C          -1.6149   -0.1498   -0.5436 C.ar    1  UNL11       0.0015
     22 C          -2.3705   -1.0749   -1.4357 C.3     1  UNL11      -0.0232
     23 C          -3.3771   -1.7864   -0.5300 C.3     1  UNL11      -0.0377
     24 C          -4.6926   -1.0969   -0.4640 C.3     1  UNL11       0.0589
     25 H          -6.1167    2.9264    0.9766 H       1  UNL11       0.5148
     26 H          -1.9294    2.2358    1.8019 H       1  UNL11       0.0659
     27 H           0.4810    1.9758    1.7740 H       1  UNL11       0.0655
     28 H           2.2016    0.2698    2.3364 H       1  UNL11       0.0748
     29 H           3.6656   -0.1225    1.4004 H       1  UNL11       0.0748
     30 H           1.5395    2.6562    2.5465 H       1  UNL11       0.0621
     31 H           2.2596    4.9625    2.5197 H       1  UNL11       0.0619
     32 H           4.3389    5.6639    1.3477 H       1  UNL11       0.0646
     33 H           4.9080    1.5473    0.2352 H       1  UNL11       0.0650
     34 H           0.2141   -1.0223   -1.1906 H       1  UNL11       0.0658
     35 H          -1.6607   -1.8469   -1.7881 H       1  UNL11       0.0315
     36 H          -2.9379   -0.5750   -2.2209 H       1  UNL11       0.0315
     37 H          -3.5536   -2.7873   -1.0109 H       1  UNL11       0.0274
     38 H          -2.9326   -1.9979    0.4536 H       1  UNL11       0.0274
     39 H          -5.4638   -1.6920    0.0828 H       1  UNL11       0.0389
     40 H          -5.0394   -0.9730   -1.5434 H       1  UNL11       0.0389
@<TRIPOS>BOND
     1     1     2    2
     2     2     3   am
     3     3     4    1
     4     3    25    1
     5     4     5    2
     6     5     6    1
     7     6     7    1
     8     6     2   am
     9     7     8   ar
    10     8     9   ar
    11     8    26    1
    12     9    10   ar
    13     9    27    1
    14    10    11    1
    15    10    20   ar
    16    11    12    1
    17    12    13    1
    18    12    28    1
    19    12    29    1
    20    13    14   ar
    21    14    15   ar
    22    14    30    1
    23    15    16   ar
    24    15    31    1
    25    16    17   ar
    26    16    32    1
    27    17    18    1
    28    17    19   ar
    29    19    13   ar
    30    19    33    1
    31    20    21   ar
    32    20    34    1
    33    21    22    1
    34    21     7   ar
    35    22    23    1
    36    22    35    1
    37    22    36    1
    38    23    24    1
    39    23    37    1
    40    23    38    1
    41    24     5    1
    42    24    39    1
    43    24    40    1
@<TRIPOS>MOLECULE
*****
 40 43 0 0 0
SMALL
GASTEIGER

@<TRIPOS>ATOM
      1 O          -3.4896    3.3086    1.1732 O.2     1  UNL11      -0.1727
      2 C          -4.0894    2.2910    0.7983 C.2     1  UNL11       0.6254
      3 N          -5.4269    2.1790    0.7255 N.am    1  UNL11       0.0964
      4 N          -5.7665    0.9918    0.2916 N.2     1  UNL11       0.2205
      5 C          -4.6194    0.2765    0.0631 C.2     1  UNL11       0.3781
      6 N          -3.6218    1.1006    0.3848 N.am    1  UNL11      -0.0548
      7 C          -2.2415    0.7860    0.2978 C.ar    1  UNL11       0.1390
      8 C          -1.4826    1.5443    1.1291 C.ar    1  UNL11      -0.0124
      9 C          -0.0914    1.3589    1.1047 C.ar    1  UNL11      -0.0161
     10 C           0.5497    0.4623    0.2985 C.ar    1  UNL11       0.1215
     11 O           1.9286    0.3005    0.2937 O.3     1  UNL11      -0.4874
     12 C           2.5729   -0.9009    0.0090 C.3     1  UNL11       0.1147
     13 C           1.5410   -1.9338   -0.2788 C.ar    1  UNL11      -0.0077
     14 C           1.4431   -3.0827    0.4874 C.ar    1  UNL11      -0.0552
     15 C           0.4820   -4.0219    0.2021 C.ar    1  UNL11      -0.0587
     16 C          -0.4110   -3.8697   -0.8369 C.ar    1  UNL11      -0.0264
     17 C          -0.3085   -2.7251   -1.5952 C.ar    1  UNL11       0.1238
     18 F          -1.1547   -2.5127   -2.6314 F       1  UNL11      -0.2055
     19 C           0.6460   -1.7744   -1.3253 C.ar    1  UNL11      -0.0201
     20 C          -0.2603   -0.3089   -0.5467 C.ar    1  UNL11      -0.0129
     21 C          -1.6149   -0.1498   -0.5436 C.ar    1  UNL11       0.0015
     22 C          -2.3705   -1.0749   -1.4357 C.3     1  UNL11      -0.0232
     23 C          -3.3771   -1.7864   -0.5300 C.3     1  UNL11      -0.0377
     24 C          -4.6926   -1.0969   -0.4640 C.3     1  UNL11       0.0589
     25 H          -6.1167    2.9264    0.9766 H       1  UNL11       0.5148
     26 H          -1.9294    2.2358    1.8019 H       1  UNL11       0.0659
     27 H           0.4810    1.9758    1.7740 H       1  UNL11       0.0655
     28 H           3.2715   -0.7707   -0.8452 H       1  UNL11       0.0748
     29 H           3.2025   -1.2726    0.8626 H       1  UNL11       0.0748
     30 H           2.1299   -3.2315    1.3106 H       1  UNL11       0.0621
     31 H           0.4516   -4.9039    0.8365 H       1  UNL11       0.0619
     32 H          -1.1625   -4.6343   -1.0373 H       1  UNL11       0.0646
     33 H           0.7332   -0.8735   -1.9155 H       1  UNL11       0.0650
     34 H           0.2141   -1.0223   -1.1906 H       1  UNL11       0.0658
     35 H          -1.6607   -1.8469   -1.7881 H       1  UNL11       0.0315
     36 H          -2.9379   -0.5750   -2.2209 H       1  UNL11       0.0315
     37 H          -3.5536   -2.7873   -1.0109 H       1  UNL11       0.0274
     38 H          -2.9326   -1.9979    0.4536 H       1  UNL11       0.0274
     39 H          -5.4638   -1.6920    0.0828 H       1  UNL11       0.0389
     40 H          -5.0394   -0.9730   -1.5434 H       1  UNL11       0.0389
@<TRIPOS>BOND
     1     1     2    2
     2     2     3   am
     3     3     4    1
     4     3    25    1
     5     4     5    2
     6     5     6    1
     7     6     7    1
     8     6     2   am
     9     7     8   ar
    10     8     9   ar
    11     8    26    1
    12     9    10   ar
    13     9    27    1
    14    10    11    1
    15    10    20   ar
    16    11    12    1
    17    12    13    1
    18    12    28    1
    19    12    29    1
    20    13    14   ar
    21    14    15   ar
    22    14    30    1
    23    15    16   ar
    24    15    31    1
    25    16    17   ar
    26    16    32    1
    27    17    18    1
    28    17    19   ar
    29    19    13   ar
    30    19    33    1
    31    20    21   ar
    32    20    34    1
    33    21    22    1
    34    21     7   ar
    35    22    23    1
    36    22    35    1
    37    22    36    1
    38    23    24    1
    39    23    37    1
    40    23    38    1
    41    24     5    1
    42    24    39    1
    43    24    40    1
@<TRIPOS>MOLECULE
*****
 40 43 0 0 0
SMALL
GASTEIGER

@<TRIPOS>ATOM
      1 O          -3.4896    3.3086    1.1732 O.2     1  UNL11      -0.1727
      2 C          -4.0894    2.2910    0.7983 C.2     1  UNL11       0.6254
      3 N          -5.4269    2.1790    0.7255 N.am    1  UNL11       0.0964
      4 N          -5.7665    0.9918    0.2916 N.2     1  UNL11       0.2205
      5 C          -4.6194    0.2765    0.0631 C.2     1  UNL11       0.3781
      6 N          -3.6218    1.1006    0.3848 N.am    1  UNL11      -0.0548
      7 C          -2.2415    0.7860    0.2978 C.ar    1  UNL11       0.1390
      8 C          -1.4826    1.5443    1.1291 C.ar    1  UNL11      -0.0124
      9 C          -0.0914    1.3589    1.1047 C.ar    1  UNL11      -0.0161
     10 C           0.5497    0.4623    0.2985 C.ar    1  UNL11       0.1215
     11 O           1.9286    0.3005    0.2937 O.3     1  UNL11      -0.4874
     12 C           2.5729   -0.9009    0.0090 C.3     1  UNL11       0.1147
     13 C           1.7231   -1.6817   -0.9305 C.ar    1  UNL11      -0.0077
     14 C           1.2427   -2.9348   -0.5905 C.ar    1  UNL11      -0.0552
     15 C           0.4599   -3.6365   -1.4748 C.ar    1  UNL11      -0.0587
     16 C           0.1224   -3.1386   -2.7151 C.ar    1  UNL11      -0.0264
     17 C           0.6033   -1.8920   -3.0475 C.ar    1  UNL11       0.1238
     18 F           0.3094   -1.3437   -4.2507 F       1  UNL11      -0.2055
     19 C           1.3875   -1.1751   -2.1764 C.ar    1  UNL11      -0.0201
     20 C          -0.2603   -0.3089   -0.5467 C.ar    1  UNL11      -0.0129
     21 C          -1.6149   -0.1498   -0.5436 C.ar    1  UNL11       0.0015
     22 C          -2.3705   -1.0749   -1.4357 C.3     1  UNL11      -0.0232
     23 C          -3.3771   -1.7864   -0.5300 C.3     1  UNL11      -0.0377
     24 C          -4.6926   -1.0969   -0.4640 C.3     1  UNL11       0.0589
     25 H          -6.1167    2.9264    0.9766 H       1  UNL11       0.5148
     26 H          -1.9294    2.2358    1.8019 H       1  UNL11       0.0659
     27 H           0.4810    1.9758    1.7740 H       1  UNL11       0.0655
     28 H           3.5811   -0.7064   -0.4158 H       1  UNL11       0.0748
     29 H           2.7447   -1.5323    0.9227 H       1  UNL11       0.0748
     30 H           1.4901   -3.3533    0.3766 H       1  UNL11       0.0621
     31 H           0.1109   -4.6148   -1.1547 H       1  UNL11       0.0619
     32 H          -0.5012   -3.7211   -3.3944 H       1  UNL11       0.0646
     33 H           1.7689   -0.1963   -2.4295 H       1  UNL11       0.0650
     34 H           0.2141   -1.0223   -1.1906 H       1  UNL11       0.0658
     35 H          -1.6607   -1.8469   -1.7881 H       1  UNL11       0.0315
     36 H          -2.9379   -0.5750   -2.2209 H       1  UNL11       0.0315
     37 H          -3.5536   -2.7873   -1.0109 H       1  UNL11       0.0274
     38 H          -2.9326   -1.9979    0.4536 H       1  UNL11       0.0274
     39 H          -5.4638   -1.6920    0.0828 H       1  UNL11       0.0389
     40 H          -5.0394   -0.9730   -1.5434 H       1  UNL11       0.0389
@<TRIPOS>BOND
     1     1     2    2
     2     2     3   am
     3     3     4    1
     4     3    25    1
     5     4     5    2
     6     5     6    1
     7     6     7    1
     8     6     2   am
     9     7     8   ar
    10     8     9   ar
    11     8    26    1
    12     9    10   ar
    13     9    27    1
    14    10    11    1
    15    10    20   ar
    16    11    12    1
    17    12    13    1
    18    12    28    1
    19    12    29    1
    20    13    14   ar
    21    14    15   ar
    22    14    30    1
    23    15    16   ar
    24    15    31    1
    25    16    17   ar
    26    16    32    1
    27    17    18    1
    28    17    19   ar
    29    19    13   ar
    30    19    33    1
    31    20    21   ar
    32    20    34    1
    33    21    22    1
    34    21     7   ar
    35    22    23    1
    36    22    35    1
    37    22    36    1
    38    23    24    1
    39    23    37    1
    40    23    38    1
    41    24     5    1
    42    24    39    1
    43    24    40    1
@<TRIPOS>MOLECULE
*****
 40 43 0 0 0
SMALL
GASTEIGER

@<TRIPOS>ATOM
      1 O          -3.4896    3.3086    1.1732 O.2     1  UNL11      -0.1727
      2 C          -4.0894    2.2910    0.7983 C.2     1  UNL11       0.6254
      3 N          -5.4269    2.1790    0.7255 N.am    1  UNL11       0.0964
      4 N          -5.7665    0.9918    0.2916 N.2     1  UNL11       0.2205
      5 C          -4.6194    0.2765    0.0631 C.2     1  UNL11       0.3781
      6 N          -3.6218    1.1006    0.3848 N.am    1  UNL11      -0.0548
      7 C          -2.2415    0.7860    0.2978 C.ar    1  UNL11       0.1390
      8 C          -1.4826    1.5443    1.1291 C.ar    1  UNL11      -0.0124
      9 C          -0.0914    1.3589    1.1047 C.ar    1  UNL11      -0.0161
     10 C           0.5497    0.4623    0.2985 C.ar    1  UNL11       0.1215
     11 O           1.9286    0.3005    0.2937 O.3     1  UNL11      -0.4874
     12 C           2.8351    1.3163    0.5867 C.3     1  UNL11       0.1147
     13 C           3.1132    1.2943    2.0485 C.ar    1  UNL11      -0.0077
     14 C           2.8383    2.3910    2.8474 C.ar    1  UNL11      -0.0552
     15 C           3.1038    2.3466    4.1945 C.ar    1  UNL11      -0.0587
     16 C           3.6443    1.2337    4.8024 C.ar    1  UNL11      -0.0264
     17 C           3.9155    0.1464    4.0025 C.ar    1  UNL11       0.1238
     18 F           4.4472   -0.9796    4.5358 F       1  UNL11      -0.2055
     19 C           3.6569    0.1718    2.6534 C.ar    1  UNL11      -0.0201
     20 C          -0.2603   -0.3089   -0.5467 C.ar    1  UNL11      -0.0129
     21 C          -1.6149   -0.1498   -0.5436 C.ar    1  UNL11       0.0015
     22 C          -2.3705   -1.0749   -1.4357 C.3     1  UNL11      -0.0232
     23 C          -3.3771   -1.7864   -0.5300 C.3     1  UNL11      -0.0377
     24 C          -4.6926   -1.0969   -0.4640 C.3     1  UNL11       0.0589
     25 H          -6.1167    2.9264    0.9766 H       1  UNL11       0.5148
     26 H          -1.9294    2.2358    1.8019 H       1  UNL11       0.0659
     27 H           0.4810    1.9758    1.7740 H       1  UNL11       0.0655
     28 H           3.7643    1.1875   -0.0089 H       1  UNL11       0.0748
     29 H           2.4463    2.3381    0.3262 H       1  UNL11       0.0748
     30 H           2.4134    3.2802    2.3999 H       1  UNL11       0.0621
     31 H           2.8680    3.2364    4.7726 H       1  UNL11       0.0619
     32 H           3.8433    1.2306    5.8747 H       1  UNL11       0.0646
     33 H           3.8667   -0.6772    2.0188 H       1  UNL11       0.0650
     34 H           0.2141   -1.0223   -1.1906 H       1  UNL11       0.0658
     35 H          -1.6607   -1.8469   -1.7881 H       1  UNL11       0.0315
     36 H          -2.9379   -0.5750   -2.2209 H       1  UNL11       0.0315
     37 H          -3.5536   -2.7873   -1.0109 H       1  UNL11       0.0274
     38 H          -2.9326   -1.9979    0.4536 H       1  UNL11       0.0274
     39 H          -5.4638   -1.6920    0.0828 H       1  UNL11       0.0389
     40 H          -5.0394   -0.9730   -1.5434 H       1  UNL11       0.0389
@<TRIPOS>BOND
     1     1     2    2
     2     2     3   am
     3     3     4    1
     4     3    25    1
     5     4     5    2
     6     5     6    1
     7     6     7    1
     8     6     2   am
     9     7     8   ar
    10     8     9   ar
    11     8    26    1
    12     9    10   ar
    13     9    27    1
    14    10    11    1
    15    10    20   ar
    16    11    12    1
    17    12    13    1
    18    12    28    1
    19    12    29    1
    20    13    14   ar
    21    14    15   ar
    22    14    30    1
    23    15    16   ar
    24    15    31    1
    25    16    17   ar
    26    16    32    1
    27    17    18    1
    28    17    19   ar
    29    19    13   ar
    30    19    33    1
    31    20    21   ar
    32    20    34    1
    33    21    22    1
    34    21     7   ar
    35    22    23    1
    36    22    35    1
    37    22    36    1
    38    23    24    1
    39    23    37    1
    40    23    38    1
    41    24     5    1
    42    24    39    1
    43    24    40    1
@<TRIPOS>MOLECULE
*****
 40 43 0 0 0
SMALL
GASTEIGER

@<TRIPOS>ATOM
      1 O          -3.4896    3.3086    1.1732 O.2     1  UNL11      -0.1727
      2 C          -4.0894    2.2910    0.7983 C.2     1  UNL11       0.6254
      3 N          -5.4269    2.1790    0.7255 N.am    1  UNL11       0.0964
      4 N          -5.7665    0.9918    0.2916 N.2     1  UNL11       0.2205
      5 C          -4.6194    0.2765    0.0631 C.2     1  UNL11       0.3781
      6 N          -3.6218    1.1006    0.3848 N.am    1  UNL11      -0.0548
      7 C          -2.2415    0.7860    0.2978 C.ar    1  UNL11       0.1390
      8 C          -1.4826    1.5443    1.1291 C.ar    1  UNL11      -0.0124
      9 C          -0.0914    1.3589    1.1047 C.ar    1  UNL11      -0.0161
     10 C           0.5497    0.4623    0.2985 C.ar    1  UNL11       0.1215
     11 O           1.9286    0.3005    0.2937 O.3     1  UNL11      -0.4874
     12 C           2.7447    0.5218    1.4003 C.3     1  UNL11       0.1147
     13 C           3.1839    1.9436    1.3867 C.ar    1  UNL11      -0.0077
     14 C           2.3915    2.9337    0.8316 C.ar    1  UNL11      -0.0552
     15 C           2.8186    4.2393    0.8309 C.ar    1  UNL11      -0.0587
     16 C           4.0291    4.6184    1.3706 C.ar    1  UNL11      -0.0264
     17 C           4.8126    3.6292    1.9211 C.ar    1  UNL11       0.1238
     18 F           6.0139    3.9330    2.4685 F       1  UNL11      -0.2055
     19 C           4.4025    2.3179    1.9312 C.ar    1  UNL11      -0.0201
     20 C          -0.2603   -0.3089   -0.5467 C.ar    1  UNL11      -0.0129
     21 C          -1.6149   -0.1498   -0.5436 C.ar    1  UNL11       0.0015
     22 C          -2.3705   -1.0749   -1.4357 C.3     1  UNL11      -0.0232
     23 C          -3.3771   -1.7864   -0.5300 C.3     1  UNL11      -0.0377
     24 C          -4.6926   -1.0969   -0.4640 C.3     1  UNL11       0.0589
     25 H          -6.1167    2.9264    0.9766 H       1  UNL11       0.5148
     26 H          -1.9294    2.2358    1.8019 H       1  UNL11       0.0659
     27 H           0.4810    1.9758    1.7740 H       1  UNL11       0.0655
     28 H           2.2016    0.2698    2.3364 H       1  UNL11       0.0748
     29 H           3.6656   -0.1225    1.4004 H       1  UNL11       0.0748
     30 H           1.4352    2.6679    0.3997 H       1  UNL11       0.0621
     31 H           2.1557    4.9742    0.3816 H       1  UNL11       0.0619
     32 H           4.3392    5.6639    1.3542 H       1  UNL11       0.0646
     33 H           5.0114    1.5356    2.3612 H       1  UNL11       0.0650
     34 H           0.2141   -1.0223   -1.1906 H       1  UNL11       0.0658
     35 H          -1.6607   -1.8469   -1.7881 H       1  UNL11       0.0315
     36 H          -2.9379   -0.5750   -2.2209 H       1  UNL11       0.0315
     37 H          -3.5536   -2.7873   -1.0109 H       1  UNL11       0.0274
     38 H          -2.9326   -1.9979    0.4536 H       1  UNL11       0.0274
     39 H          -5.4638   -1.6920    0.0828 H       1  UNL11       0.0389
     40 H          -5.0394   -0.9730   -1.5434 H       1  UNL11       0.0389
@<TRIPOS>BOND
     1     1     2    2
     2     2     3   am
     3     3     4    1
     4     3    25    1
     5     4     5    2
     6     5     6    1
     7     6     7    1
     8     6     2   am
     9     7     8   ar
    10     8     9   ar
    11     8    26    1
    12     9    10   ar
    13     9    27    1
    14    10    11    1
    15    10    20   ar
    16    11    12    1
    17    12    13    1
    18    12    28    1
    19    12    29    1
    20    13    14   ar
    21    14    15   ar
    22    14    30    1
    23    15    16   ar
    24    15    31    1
    25    16    17   ar
    26    16    32    1
    27    17    18    1
    28    17    19   ar
    29    19    13   ar
    30    19    33    1
    31    20    21   ar
    32    20    34    1
    33    21    22    1
    34    21     7   ar
    35    22    23    1
    36    22    35    1
    37    22    36    1
    38    23    24    1
    39    23    37    1
    40    23    38    1
    41    24     5    1
    42    24    39    1
    43    24    40    1
@<TRIPOS>MOLECULE
*****
 40 43 0 0 0
SMALL
GASTEIGER

@<TRIPOS>ATOM
      1 O          -3.4896    3.3086    1.1732 O.2     1  UNL11      -0.1727
      2 C          -4.0894    2.2910    0.7983 C.2     1  UNL11       0.6254
      3 N          -5.4269    2.1790    0.7255 N.am    1  UNL11       0.0964
      4 N          -5.7665    0.9918    0.2916 N.2     1  UNL11       0.2205
      5 C          -4.6194    0.2765    0.0631 C.2     1  UNL11       0.3781
      6 N          -3.6218    1.1006    0.3848 N.am    1  UNL11      -0.0548
      7 C          -2.2415    0.7860    0.2978 C.ar    1  UNL11       0.1390
      8 C          -1.4826    1.5443    1.1291 C.ar    1  UNL11      -0.0124
      9 C          -0.0914    1.3589    1.1047 C.ar    1  UNL11      -0.0161
     10 C           0.5497    0.4623    0.2985 C.ar    1  UNL11       0.1215
     11 O           1.9286    0.3005    0.2937 O.3     1  UNL11      -0.4874
     12 C           2.8351    1.3163    0.5867 C.3     1  UNL11       0.1147
     13 C           2.6269    2.4287   -0.3797 C.ar    1  UNL11      -0.0077
     14 C           2.8777    3.7431   -0.0251 C.ar    1  UNL11      -0.0552
     15 C           2.6780    4.7529   -0.9349 C.ar    1  UNL11      -0.0587
     16 C           2.2286    4.5120   -2.2156 C.ar    1  UNL11      -0.0264
     17 C           1.9809    3.2028   -2.5622 C.ar    1  UNL11       0.1238
     18 F           1.5374    2.8961   -3.8048 F       1  UNL11      -0.2055
     19 C           2.1747    2.1794   -1.6662 C.ar    1  UNL11      -0.0201
     20 C          -0.2603   -0.3089   -0.5467 C.ar    1  UNL11      -0.0129
     21 C          -1.6149   -0.1498   -0.5436 C.ar    1  UNL11       0.0015
     22 C          -2.3705   -1.0749   -1.4357 C.3     1  UNL11      -0.0232
     23 C          -3.3771   -1.7864   -0.5300 C.3     1  UNL11      -0.0377
     24 C          -4.6926   -1.0969   -0.4640 C.3     1  UNL11       0.0589
     25 H          -6.1167    2.9264    0.9766 H       1  UNL11       0.5148
     26 H          -1.9294    2.2358    1.8019 H       1  UNL11       0.0659
     27 H           0.4810    1.9758    1.7740 H       1  UNL11       0.0655
     28 H           2.7066    1.6566    1.6367 H       1  UNL11       0.0748
     29 H           3.9057    0.9846    0.5036 H       1  UNL11       0.0748
     30 H           3.2316    3.9650    0.9734 H       1  UNL11       0.0621
     31 H           2.8910    5.7653   -0.6017 H       1  UNL11       0.0619
     32 H           2.0801    5.3363   -2.9142 H       1  UNL11       0.0646
     33 H           1.9828    1.1493   -1.9302 H       1  UNL11       0.0650
     34 H           0.2141   -1.0223   -1.1906 H       1  UNL11       0.0658
     35 H          -1.6607   -1.8469   -1.7881 H       1  UNL11       0.0315
     36 H          -2.9379   -0.5750   -2.2209 H       1  UNL11       0.0315
     37 H          -3.5536   -2.7873   -1.0109 H       1  UNL11       0.0274
     38 H          -2.9326   -1.9979    0.4536 H       1  UNL11       0.0274
     39 H          -5.4638   -1.6920    0.0828 H       1  UNL11       0.0389
     40 H          -5.0394   -0.9730   -1.5434 H       1  UNL11       0.0389
@<TRIPOS>BOND
     1     1     2    2
     2     2     3   am
     3     3     4    1
     4     3    25    1
     5     4     5    2
     6     5     6    1
     7     6     7    1
     8     6     2   am
     9     7     8   ar
    10     8     9   ar
    11     8    26    1
    12     9    10   ar
    13     9    27    1
    14    10    11    1
    15    10    20   ar
    16    11    12    1
    17    12    13    1
    18    12    28    1
    19    12    29    1
    20    13    14   ar
    21    14    15   ar
    22    14    30    1
    23    15    16   ar
    24    15    31    1
    25    16    17   ar
    26    16    32    1
    27    17    18    1
    28    17    19   ar
    29    19    13   ar
    30    19    33    1
    31    20    21   ar
    32    20    34    1
    33    21    22    1
    34    21     7   ar
    35    22    23    1
    36    22    35    1
    37    22    36    1
    38    23    24    1
    39    23    37    1
    40    23    38    1
    41    24     5    1
    42    24    39    1
    43    24    40    1
@<TRIPOS>MOLECULE
*****
 40 43 0 0 0
SMALL
GASTEIGER

@<TRIPOS>ATOM
      1 O          -3.4896    3.3086    1.1732 O.2     1  UNL11      -0.1727
      2 C          -4.0894    2.2910    0.7983 C.2     1  UNL11       0.6254
      3 N          -5.4269    2.1790    0.7255 N.am    1  UNL11       0.0964
      4 N          -5.7665    0.9918    0.2916 N.2     1  UNL11       0.2205
      5 C          -4.6194    0.2765    0.0631 C.2     1  UNL11       0.3781
      6 N          -3.6218    1.1006    0.3848 N.am    1  UNL11      -0.0548
      7 C          -2.2415    0.7860    0.2978 C.ar    1  UNL11       0.1390
      8 C          -1.4826    1.5443    1.1291 C.ar    1  UNL11      -0.0124
      9 C          -0.0914    1.3589    1.1047 C.ar    1  UNL11      -0.0161
     10 C           0.5497    0.4623    0.2985 C.ar    1  UNL11       0.1215
     11 O           1.9286    0.3005    0.2937 O.3     1  UNL11      -0.4874
     12 C           2.5729   -0.9009    0.0090 C.3     1  UNL11       0.1147
     13 C           2.1210   -1.9237    0.9910 C.ar    1  UNL11      -0.0077
     14 C           1.7349   -1.5669    2.2717 C.ar    1  UNL11      -0.0552
     15 C           1.3215   -2.5293    3.1606 C.ar    1  UNL11      -0.0587
     16 C           1.2720   -3.8661    2.8282 C.ar    1  UNL11      -0.0264
     17 C           1.6573   -4.2146    1.5532 C.ar    1  UNL11       0.1238
     18 F           1.6327   -5.5110    1.1612 F       1  UNL11      -0.2055
     19 C           2.0737   -3.2665    0.6503 C.ar    1  UNL11      -0.0201
     20 C          -0.2603   -0.3089   -0.5467 C.ar    1  UNL11      -0.0129
     21 C          -1.6149   -0.1498   -0.5436 C.ar    1  UNL11       0.0015
     22 C          -2.3705   -1.0749   -1.4357 C.3     1  UNL11      -0.0232
     23 C          -3.3771   -1.7864   -0.5300 C.3     1  UNL11      -0.0377
     24 C          -4.6926   -1.0969   -0.4640 C.3     1  UNL11       0.0589
     25 H          -6.1167    2.9264    0.9766 H       1  UNL11       0.5148
     26 H          -1.9294    2.2358    1.8019 H       1  UNL11       0.0659
     27 H           0.4810    1.9758    1.7740 H       1  UNL11       0.0655
     28 H           2.3605   -1.2142   -1.0357 H       1  UNL11       0.0748
     29 H           3.6918   -0.8251    0.0820 H       1  UNL11       0.0748
     30 H           1.7625   -0.5248    2.5632 H       1  UNL11       0.0621
     31 H           1.0301   -2.1917    4.1518 H       1  UNL11       0.0619
     32 H           0.9389   -4.6057    3.5573 H       1  UNL11       0.0646
     33 H           2.3777   -3.5316   -0.3522 H       1  UNL11       0.0650
     34 H           0.2141   -1.0223   -1.1906 H       1  UNL11       0.0658
     35 H          -1.6607   -1.8469   -1.7881 H       1  UNL11       0.0315
     36 H          -2.9379   -0.5750   -2.2209 H       1  UNL11       0.0315
     37 H          -3.5536   -2.7873   -1.0109 H       1  UNL11       0.0274
     38 H          -2.9326   -1.9979    0.4536 H       1  UNL11       0.0274
     39 H          -5.4638   -1.6920    0.0828 H       1  UNL11       0.0389
     40 H          -5.0394   -0.9730   -1.5434 H       1  UNL11       0.0389
@<TRIPOS>BOND
     1     1     2    2
     2     2     3   am
     3     3     4    1
     4     3    25    1
     5     4     5    2
     6     5     6    1
     7     6     7    1
     8     6     2   am
     9     7     8   ar
    10     8     9   ar
    11     8    26    1
    12     9    10   ar
    13     9    27    1
    14    10    11    1
    15    10    20   ar
    16    11    12    1
    17    12    13    1
    18    12    28    1
    19    12    29    1
    20    13    14   ar
    21    14    15   ar
    22    14    30    1
    23    15    16   ar
    24    15    31    1
    25    16    17   ar
    26    16    32    1
    27    17    18    1
    28    17    19   ar
    29    19    13   ar
    30    19    33    1
    31    20    21   ar
    32    20    34    1
    33    21    22    1
    34    21     7   ar
    35    22    23    1
    36    22    35    1
    37    22    36    1
    38    23    24    1
    39    23    37    1
    40    23    38    1
    41    24     5    1
    42    24    39    1
    43    24    40    1
