@<TRIPOS>MOLECULE
*****
 41 44 0 0 0
SMALL
GASTEIGER

@<TRIPOS>ATOM
      1 N          -1.2581   -0.0446   -1.0620 N.2     1  UNL11      -0.1276
      2 N          -0.9554   -0.5215   -2.1467 N.2     1  UNL11      -0.1974
      3 N          -0.5546   -0.5326   -3.3304 N.2     1  UNL11      -0.1095
      4 C           0.8295   -0.3786   -3.6786 C.3     1  UNL11       0.1058
      5 C           1.5986    0.4561   -2.6953 C.3     1  UNL11       0.1357
      6 O           1.0370    1.7117   -2.6151 O.3     1  UNL11      -0.3836
      7 C           1.4825   -0.2182   -1.3321 C.3     1  UNL11       0.1755
      8 N           0.1587   -0.3656   -0.8558 N.am    1  UNL11      -0.1275
      9 C          -0.5045    0.5110   -0.1061 C.2     1  UNL11       0.2235
     10 C          -1.8112    0.2635    0.3268 C.2     1  UNL11       0.1014
     11 C          -2.4319   -0.9192   -0.0304 C.ar    1  UNL11       0.0090
     12 C          -3.7261   -1.2104    0.3744 C.ar    1  UNL11      -0.0528
     13 C          -4.3045   -2.4023   -0.0059 C.ar    1  UNL11      -0.0611
     14 C          -3.6174   -3.3104   -0.7825 C.ar    1  UNL11      -0.0608
     15 C          -2.3310   -3.0279   -1.1885 C.ar    1  UNL11      -0.0442
     16 C          -1.7516   -1.8288   -0.8048 C.ar    1  UNL11       0.0971
     17 C          -0.4791   -1.5273   -1.1948 C.2     1  UNL11       0.4164
     18 O           0.1142   -2.3889   -1.9061 O.2     1  UNL11      -0.2140
     19 C          -2.3087    1.3725    1.1209 C.2     1  UNL11       0.2008
     20 O          -3.4191    1.5329    1.6828 O.2     1  UNL11      -0.2864
     21 C          -1.2138    2.3258    1.1482 C.ar    1  UNL11       0.0359
     22 C          -1.1209    3.5796    1.7619 C.ar    1  UNL11      -0.0501
     23 C           0.0340    4.3158    1.6484 C.ar    1  UNL11      -0.0610
     24 C           1.1100    3.8395    0.9370 C.ar    1  UNL11      -0.0610
     25 C           1.0264    2.5844    0.3188 C.ar    1  UNL11      -0.0476
     26 C          -0.1191    1.8374    0.4220 C.ar    1  UNL11       0.0572
     27 H           0.9695    0.0458   -4.7051 H       1  UNL11       0.0565
     28 H           1.3024   -1.3967   -3.6777 H       1  UNL11       0.0565
     29 H           2.6774    0.5308   -2.9950 H       1  UNL11       0.0676
     30 H           1.5607    2.3000   -2.0072 H       1  UNL11       0.2101
     31 H           2.1602   -1.0571   -1.2907 H       1  UNL11       0.1052
     32 H           1.9861    0.5643   -0.6260 H       1  UNL11       0.1052
     33 H          -4.2570   -0.4864    0.9863 H       1  UNL11       0.0624
     34 H          -5.3143   -2.6206    0.3147 H       1  UNL11       0.0618
     35 H          -4.0936   -4.2402   -1.0683 H       1  UNL11       0.0618
     36 H          -1.7778   -3.7490   -1.8084 H       1  UNL11       0.0627
     37 H          -1.9737    3.9404    2.3172 H       1  UNL11       0.0625
     38 H           0.1002    5.2805    2.1226 H       1  UNL11       0.0618
     39 H           2.0331    4.3681    0.8152 H       1  UNL11       0.0618
     40 H           1.8664    2.2233   -0.2199 H       1  UNL11       0.0626
     41 H          -1.7223   -0.5981   -0.3932 H       1  UNL11       0.2280
@<TRIPOS>BOND
     1     1     2    2
     2     2     3    2
     3     3     4    1
     4     4     5    1
     5     4    27    1
     6     4    28    1
     7     5     6    1
     8     5     7    1
     9     5    29    1
    10     6    30    1
    11     7     8    1
    12     7    31    1
    13     7    32    1
    14     8     9    1
    15     9    10    2
    16    10    11    1
    17    10    19    1
    18    11    12   ar
    19    12    13   ar
    20    12    33    1
    21    13    14   ar
    22    13    34    1
    23    14    15   ar
    24    14    35    1
    25    15    16   ar
    26    15    36    1
    27    16    17    1
    28    16    11   ar
    29    17    18    2
    30    17     8   am
    31    19    20    2
    32    19    21    1
    33    21    22   ar
    34    22    23   ar
    35    22    37    1
    36    23    24   ar
    37    23    38    1
    38    24    25   ar
    39    24    39    1
    40    25    26   ar
    41    25    40    1
    42    26    21   ar
    43    26     9    1
    44     1    41    1
@<TRIPOS>MOLECULE
*****
 41 44 0 0 0
SMALL
GASTEIGER

@<TRIPOS>ATOM
      1 N           3.0479    1.5508    0.0940 N.2     1  UNL11      -0.1276
      2 N           2.2014    2.1449   -0.5589 N.2     1  UNL11      -0.1974
      3 N           1.6630    2.6368   -1.5737 N.2     1  UNL11      -0.1095
      4 C           1.0121    1.8328   -2.5691 C.3     1  UNL11       0.1058
      5 C           1.5986    0.4561   -2.6953 C.3     1  UNL11       0.1357
      6 O           2.9322    0.5500   -3.0283 O.3     1  UNL11      -0.3836
      7 C           1.4825   -0.2182   -1.3321 C.3     1  UNL11       0.1755
      8 N           0.1587   -0.3656   -0.8558 N.am    1  UNL11      -0.1275
      9 C          -0.5045    0.5110   -0.1061 C.2     1  UNL11       0.2235
     10 C          -1.8112    0.2635    0.3268 C.2     1  UNL11       0.1014
     11 C          -2.4319   -0.9192   -0.0304 C.ar    1  UNL11       0.0090
     12 C          -3.7261   -1.2104    0.3744 C.ar    1  UNL11      -0.0528
     13 C          -4.3045   -2.4023   -0.0059 C.ar    1  UNL11      -0.0611
     14 C          -3.6174   -3.3104   -0.7825 C.ar    1  UNL11      -0.0608
     15 C          -2.3310   -3.0279   -1.1885 C.ar    1  UNL11      -0.0442
     16 C          -1.7516   -1.8288   -0.8048 C.ar    1  UNL11       0.0971
     17 C          -0.4791   -1.5273   -1.1948 C.2     1  UNL11       0.4164
     18 O           0.1142   -2.3889   -1.9061 O.2     1  UNL11      -0.2140
     19 C          -2.3087    1.3725    1.1209 C.2     1  UNL11       0.2008
     20 O          -3.4191    1.5329    1.6828 O.2     1  UNL11      -0.2864
     21 C          -1.2138    2.3258    1.1482 C.ar    1  UNL11       0.0359
     22 C          -1.1209    3.5796    1.7619 C.ar    1  UNL11      -0.0501
     23 C           0.0340    4.3158    1.6484 C.ar    1  UNL11      -0.0610
     24 C           1.1100    3.8395    0.9370 C.ar    1  UNL11      -0.0610
     25 C           1.0264    2.5844    0.3188 C.ar    1  UNL11      -0.0476
     26 C          -0.1191    1.8374    0.4220 C.ar    1  UNL11       0.0572
     27 H           1.0050    2.3198   -3.5771 H       1  UNL11       0.0565
     28 H          -0.0594    1.7007   -2.2616 H       1  UNL11       0.0565
     29 H           1.0460   -0.1424   -3.4670 H       1  UNL11       0.0676
     30 H           3.3307   -0.3509   -3.1678 H       1  UNL11       0.2101
     31 H           2.1602   -1.0571   -1.2907 H       1  UNL11       0.1052
     32 H           1.9861    0.5643   -0.6260 H       1  UNL11       0.1052
     33 H          -4.2570   -0.4864    0.9863 H       1  UNL11       0.0624
     34 H          -5.3143   -2.6206    0.3147 H       1  UNL11       0.0618
     35 H          -4.0936   -4.2402   -1.0683 H       1  UNL11       0.0618
     36 H          -1.7778   -3.7490   -1.8084 H       1  UNL11       0.0627
     37 H          -1.9737    3.9404    2.3172 H       1  UNL11       0.0625
     38 H           0.1002    5.2805    2.1226 H       1  UNL11       0.0618
     39 H           2.0331    4.3681    0.8152 H       1  UNL11       0.0618
     40 H           1.8664    2.2233   -0.2199 H       1  UNL11       0.0626
     41 H           3.0075    1.5607    1.0776 H       1  UNL11       0.2280
@<TRIPOS>BOND
     1     1     2    2
     2     2     3    2
     3     3     4    1
     4     4     5    1
     5     4    27    1
     6     4    28    1
     7     5     6    1
     8     5     7    1
     9     5    29    1
    10     6    30    1
    11     7     8    1
    12     7    31    1
    13     7    32    1
    14     8     9    1
    15     9    10    2
    16    10    11    1
    17    10    19    1
    18    11    12   ar
    19    12    13   ar
    20    12    33    1
    21    13    14   ar
    22    13    34    1
    23    14    15   ar
    24    14    35    1
    25    15    16   ar
    26    15    36    1
    27    16    17    1
    28    16    11   ar
    29    17    18    2
    30    17     8   am
    31    19    20    2
    32    19    21    1
    33    21    22   ar
    34    22    23   ar
    35    22    37    1
    36    23    24   ar
    37    23    38    1
    38    24    25   ar
    39    24    39    1
    40    25    26   ar
    41    25    40    1
    42    26    21   ar
    43    26     9    1
    44     1    41    1
@<TRIPOS>MOLECULE
*****
 41 44 0 0 0
SMALL
GASTEIGER

@<TRIPOS>ATOM
      1 N           1.5779    0.1315    2.5696 N.2     1  UNL11      -0.1276
      2 N           2.1733    0.9082    1.8362 N.2     1  UNL11      -0.1974
      3 N           2.6490    1.3520    0.7692 N.2     1  UNL11      -0.1095
      4 C           1.8331    1.9432   -0.2533 C.3     1  UNL11       0.1058
      5 C           1.9183    1.2241   -1.5690 C.3     1  UNL11       0.1357
      6 O           3.2229    1.2232   -2.0121 O.3     1  UNL11      -0.3836
      7 C           1.4825   -0.2182   -1.3321 C.3     1  UNL11       0.1755
      8 N           0.1587   -0.3656   -0.8558 N.am    1  UNL11      -0.1275
      9 C          -0.5045    0.5110   -0.1061 C.2     1  UNL11       0.2235
     10 C          -1.8112    0.2635    0.3268 C.2     1  UNL11       0.1014
     11 C          -2.4319   -0.9192   -0.0304 C.ar    1  UNL11       0.0090
     12 C          -3.7261   -1.2104    0.3744 C.ar    1  UNL11      -0.0528
     13 C          -4.3045   -2.4023   -0.0059 C.ar    1  UNL11      -0.0611
     14 C          -3.6174   -3.3104   -0.7825 C.ar    1  UNL11      -0.0608
     15 C          -2.3310   -3.0279   -1.1885 C.ar    1  UNL11      -0.0442
     16 C          -1.7516   -1.8288   -0.8048 C.ar    1  UNL11       0.0971
     17 C          -0.4791   -1.5273   -1.1948 C.2     1  UNL11       0.4164
     18 O           0.1142   -2.3889   -1.9061 O.2     1  UNL11      -0.2140
     19 C          -2.3087    1.3725    1.1209 C.2     1  UNL11       0.2008
     20 O          -3.4191    1.5329    1.6828 O.2     1  UNL11      -0.2864
     21 C          -1.2138    2.3258    1.1482 C.ar    1  UNL11       0.0359
     22 C          -1.1209    3.5796    1.7619 C.ar    1  UNL11      -0.0501
     23 C           0.0340    4.3158    1.6484 C.ar    1  UNL11      -0.0610
     24 C           1.1100    3.8395    0.9370 C.ar    1  UNL11      -0.0610
     25 C           1.0264    2.5844    0.3188 C.ar    1  UNL11      -0.0476
     26 C          -0.1191    1.8374    0.4220 C.ar    1  UNL11       0.0572
     27 H           2.0642    3.0267   -0.4144 H       1  UNL11       0.0565
     28 H           0.7626    1.8825    0.0793 H       1  UNL11       0.0565
     29 H           1.2493    1.7064   -2.3299 H       1  UNL11       0.0676
     30 H           3.2964    0.7965   -2.9079 H       1  UNL11       0.2101
     31 H           1.8262   -0.8331   -2.1497 H       1  UNL11       0.1052
     32 H           2.1734   -0.5427   -0.4479 H       1  UNL11       0.1052
     33 H          -4.2570   -0.4864    0.9863 H       1  UNL11       0.0624
     34 H          -5.3143   -2.6206    0.3147 H       1  UNL11       0.0618
     35 H          -4.0936   -4.2402   -1.0683 H       1  UNL11       0.0618
     36 H          -1.7778   -3.7490   -1.8084 H       1  UNL11       0.0627
     37 H          -1.9737    3.9404    2.3172 H       1  UNL11       0.0625
     38 H           0.1002    5.2805    2.1226 H       1  UNL11       0.0618
     39 H           2.0331    4.3681    0.8152 H       1  UNL11       0.0618
     40 H           1.8664    2.2233   -0.2199 H       1  UNL11       0.0626
     41 H           1.6165    0.2491    3.5463 H       1  UNL11       0.2280
@<TRIPOS>BOND
     1     1     2    2
     2     2     3    2
     3     3     4    1
     4     4     5    1
     5     4    27    1
     6     4    28    1
     7     5     6    1
     8     5     7    1
     9     5    29    1
    10     6    30    1
    11     7     8    1
    12     7    31    1
    13     7    32    1
    14     8     9    1
    15     9    10    2
    16    10    11    1
    17    10    19    1
    18    11    12   ar
    19    12    13   ar
    20    12    33    1
    21    13    14   ar
    22    13    34    1
    23    14    15   ar
    24    14    35    1
    25    15    16   ar
    26    15    36    1
    27    16    17    1
    28    16    11   ar
    29    17    18    2
    30    17     8   am
    31    19    20    2
    32    19    21    1
    33    21    22   ar
    34    22    23   ar
    35    22    37    1
    36    23    24   ar
    37    23    38    1
    38    24    25   ar
    39    24    39    1
    40    25    26   ar
    41    25    40    1
    42    26    21   ar
    43    26     9    1
    44     1    41    1
@<TRIPOS>MOLECULE
*****
 41 44 0 0 0
SMALL
GASTEIGER

@<TRIPOS>ATOM
      1 N          -0.1610    3.3384   -1.2710 N.2     1  UNL11      -0.1276
      2 N           0.4836    2.9406   -2.2311 N.2     1  UNL11      -0.1974
      3 N           1.2434    2.1887   -2.8785 N.2     1  UNL11      -0.1095
      4 C           0.8191    0.9160   -3.3892 C.3     1  UNL11       0.1058
      5 C           1.6195   -0.2351   -2.8511 C.3     1  UNL11       0.1357
      6 O           2.9479   -0.0670   -3.1757 O.3     1  UNL11      -0.3836
      7 C           1.4825   -0.2182   -1.3321 C.3     1  UNL11       0.1755
      8 N           0.1587   -0.3656   -0.8558 N.am    1  UNL11      -0.1275
      9 C          -0.5045    0.5110   -0.1061 C.2     1  UNL11       0.2235
     10 C          -1.8112    0.2635    0.3268 C.2     1  UNL11       0.1014
     11 C          -2.4319   -0.9192   -0.0304 C.ar    1  UNL11       0.0090
     12 C          -3.7261   -1.2104    0.3744 C.ar    1  UNL11      -0.0528
     13 C          -4.3045   -2.4023   -0.0059 C.ar    1  UNL11      -0.0611
     14 C          -3.6174   -3.3104   -0.7825 C.ar    1  UNL11      -0.0608
     15 C          -2.3310   -3.0279   -1.1885 C.ar    1  UNL11      -0.0442
     16 C          -1.7516   -1.8288   -0.8048 C.ar    1  UNL11       0.0971
     17 C          -0.4791   -1.5273   -1.1948 C.2     1  UNL11       0.4164
     18 O           0.1142   -2.3889   -1.9061 O.2     1  UNL11      -0.2140
     19 C          -2.3087    1.3725    1.1209 C.2     1  UNL11       0.2008
     20 O          -3.4191    1.5329    1.6828 O.2     1  UNL11      -0.2864
     21 C          -1.2138    2.3258    1.1482 C.ar    1  UNL11       0.0359
     22 C          -1.1209    3.5796    1.7619 C.ar    1  UNL11      -0.0501
     23 C           0.0340    4.3158    1.6484 C.ar    1  UNL11      -0.0610
     24 C           1.1100    3.8395    0.9370 C.ar    1  UNL11      -0.0610
     25 C           1.0264    2.5844    0.3188 C.ar    1  UNL11      -0.0476
     26 C          -0.1191    1.8374    0.4220 C.ar    1  UNL11       0.0572
     27 H           0.8308    0.8766   -4.5080 H       1  UNL11       0.0565
     28 H          -0.2432    0.7497   -3.0666 H       1  UNL11       0.0565
     29 H           1.2396   -1.2089   -3.2592 H       1  UNL11       0.0676
     30 H           3.4914   -0.8436   -2.8736 H       1  UNL11       0.2101
     31 H           2.2744   -0.8079   -0.8963 H       1  UNL11       0.1052
     32 H           1.7920    0.8769   -1.0686 H       1  UNL11       0.1052
     33 H          -4.2570   -0.4864    0.9863 H       1  UNL11       0.0624
     34 H          -5.3143   -2.6206    0.3147 H       1  UNL11       0.0618
     35 H          -4.0936   -4.2402   -1.0683 H       1  UNL11       0.0618
     36 H          -1.7778   -3.7490   -1.8084 H       1  UNL11       0.0627
     37 H          -1.9737    3.9404    2.3172 H       1  UNL11       0.0625
     38 H           0.1002    5.2805    2.1226 H       1  UNL11       0.0618
     39 H           2.0331    4.3681    0.8152 H       1  UNL11       0.0618
     40 H           1.8664    2.2233   -0.2199 H       1  UNL11       0.0626
     41 H          -0.5667    4.2353   -1.2880 H       1  UNL11       0.2280
@<TRIPOS>BOND
     1     1     2    2
     2     2     3    2
     3     3     4    1
     4     4     5    1
     5     4    27    1
     6     4    28    1
     7     5     6    1
     8     5     7    1
     9     5    29    1
    10     6    30    1
    11     7     8    1
    12     7    31    1
    13     7    32    1
    14     8     9    1
    15     9    10    2
    16    10    11    1
    17    10    19    1
    18    11    12   ar
    19    12    13   ar
    20    12    33    1
    21    13    14   ar
    22    13    34    1
    23    14    15   ar
    24    14    35    1
    25    15    16   ar
    26    15    36    1
    27    16    17    1
    28    16    11   ar
    29    17    18    2
    30    17     8   am
    31    19    20    2
    32    19    21    1
    33    21    22   ar
    34    22    23   ar
    35    22    37    1
    36    23    24   ar
    37    23    38    1
    38    24    25   ar
    39    24    39    1
    40    25    26   ar
    41    25    40    1
    42    26    21   ar
    43    26     9    1
    44     1    41    1
@<TRIPOS>MOLECULE
*****
 41 44 0 0 0
SMALL
GASTEIGER

@<TRIPOS>ATOM
      1 N          -0.3442   -4.2479   -0.5877 N.2     1  UNL11      -0.1276
      2 N           0.1621   -3.2055   -0.1969 N.2     1  UNL11      -0.1974
      3 N           0.9955   -2.4725    0.3776 N.2     1  UNL11      -0.1095
      4 C           2.2953   -2.2047   -0.1697 C.3     1  UNL11       0.1058
      5 C           2.2463   -1.5266   -1.5087 C.3     1  UNL11       0.1357
      6 O           1.5618   -2.3191   -2.4041 O.3     1  UNL11      -0.3836
      7 C           1.4825   -0.2182   -1.3321 C.3     1  UNL11       0.1755
      8 N           0.1587   -0.3656   -0.8558 N.am    1  UNL11      -0.1275
      9 C          -0.5045    0.5110   -0.1061 C.2     1  UNL11       0.2235
     10 C          -1.8112    0.2635    0.3268 C.2     1  UNL11       0.1014
     11 C          -2.4319   -0.9192   -0.0304 C.ar    1  UNL11       0.0090
     12 C          -3.7261   -1.2104    0.3744 C.ar    1  UNL11      -0.0528
     13 C          -4.3045   -2.4023   -0.0059 C.ar    1  UNL11      -0.0611
     14 C          -3.6174   -3.3104   -0.7825 C.ar    1  UNL11      -0.0608
     15 C          -2.3310   -3.0279   -1.1885 C.ar    1  UNL11      -0.0442
     16 C          -1.7516   -1.8288   -0.8048 C.ar    1  UNL11       0.0971
     17 C          -0.4791   -1.5273   -1.1948 C.2     1  UNL11       0.4164
     18 O           0.1142   -2.3889   -1.9061 O.2     1  UNL11      -0.2140
     19 C          -2.3087    1.3725    1.1209 C.2     1  UNL11       0.2008
     20 O          -3.4191    1.5329    1.6828 O.2     1  UNL11      -0.2864
     21 C          -1.2138    2.3258    1.1482 C.ar    1  UNL11       0.0359
     22 C          -1.1209    3.5796    1.7619 C.ar    1  UNL11      -0.0501
     23 C           0.0340    4.3158    1.6484 C.ar    1  UNL11      -0.0610
     24 C           1.1100    3.8395    0.9370 C.ar    1  UNL11      -0.0610
     25 C           1.0264    2.5844    0.3188 C.ar    1  UNL11      -0.0476
     26 C          -0.1191    1.8374    0.4220 C.ar    1  UNL11       0.0572
     27 H           2.9254   -3.1266   -0.2509 H       1  UNL11       0.0565
     28 H           2.8276   -1.5045    0.5278 H       1  UNL11       0.0565
     29 H           3.2819   -1.3175   -1.8868 H       1  UNL11       0.0676
     30 H           1.5602   -1.9137   -3.3126 H       1  UNL11       0.2101
     31 H           2.1325    0.5157   -0.8809 H       1  UNL11       0.1052
     32 H           1.3810    0.1589   -2.4330 H       1  UNL11       0.1052
     33 H          -4.2570   -0.4864    0.9863 H       1  UNL11       0.0624
     34 H          -5.3143   -2.6206    0.3147 H       1  UNL11       0.0618
     35 H          -4.0936   -4.2402   -1.0683 H       1  UNL11       0.0618
     36 H          -1.7778   -3.7490   -1.8084 H       1  UNL11       0.0627
     37 H          -1.9737    3.9404    2.3172 H       1  UNL11       0.0625
     38 H           0.1002    5.2805    2.1226 H       1  UNL11       0.0618
     39 H           2.0331    4.3681    0.8152 H       1  UNL11       0.0618
     40 H           1.8664    2.2233   -0.2199 H       1  UNL11       0.0626
     41 H          -1.2485   -4.2403   -0.9766 H       1  UNL11       0.2280
@<TRIPOS>BOND
     1     1     2    2
     2     2     3    2
     3     3     4    1
     4     4     5    1
     5     4    27    1
     6     4    28    1
     7     5     6    1
     8     5     7    1
     9     5    29    1
    10     6    30    1
    11     7     8    1
    12     7    31    1
    13     7    32    1
    14     8     9    1
    15     9    10    2
    16    10    11    1
    17    10    19    1
    18    11    12   ar
    19    12    13   ar
    20    12    33    1
    21    13    14   ar
    22    13    34    1
    23    14    15   ar
    24    14    35    1
    25    15    16   ar
    26    15    36    1
    27    16    17    1
    28    16    11   ar
    29    17    18    2
    30    17     8   am
    31    19    20    2
    32    19    21    1
    33    21    22   ar
    34    22    23   ar
    35    22    37    1
    36    23    24   ar
    37    23    38    1
    38    24    25   ar
    39    24    39    1
    40    25    26   ar
    41    25    40    1
    42    26    21   ar
    43    26     9    1
    44     1    41    1
@<TRIPOS>MOLECULE
*****
 41 44 0 0 0
SMALL
GASTEIGER

@<TRIPOS>ATOM
      1 N           1.2953   -4.4111    0.1803 N.2     1  UNL11      -0.1276
      2 N           1.8525   -3.5442   -0.4783 N.2     1  UNL11      -0.1974
      3 N           2.3157   -2.9892   -1.4977 N.2     1  UNL11      -0.1095
      4 C           1.4800   -2.3689   -2.4864 C.3     1  UNL11       0.1058
      5 C           1.7609   -0.9046   -2.6654 C.3     1  UNL11       0.1357
      6 O           0.9103   -0.3830   -3.6156 O.3     1  UNL11      -0.3836
      7 C           1.4825   -0.2182   -1.3321 C.3     1  UNL11       0.1755
      8 N           0.1587   -0.3656   -0.8558 N.am    1  UNL11      -0.1275
      9 C          -0.5045    0.5110   -0.1061 C.2     1  UNL11       0.2235
     10 C          -1.8112    0.2635    0.3268 C.2     1  UNL11       0.1014
     11 C          -2.4319   -0.9192   -0.0304 C.ar    1  UNL11       0.0090
     12 C          -3.7261   -1.2104    0.3744 C.ar    1  UNL11      -0.0528
     13 C          -4.3045   -2.4023   -0.0059 C.ar    1  UNL11      -0.0611
     14 C          -3.6174   -3.3104   -0.7825 C.ar    1  UNL11      -0.0608
     15 C          -2.3310   -3.0279   -1.1885 C.ar    1  UNL11      -0.0442
     16 C          -1.7516   -1.8288   -0.8048 C.ar    1  UNL11       0.0971
     17 C          -0.4791   -1.5273   -1.1948 C.2     1  UNL11       0.4164
     18 O           0.1142   -2.3889   -1.9061 O.2     1  UNL11      -0.2140
     19 C          -2.3087    1.3725    1.1209 C.2     1  UNL11       0.2008
     20 O          -3.4191    1.5329    1.6828 O.2     1  UNL11      -0.2864
     21 C          -1.2138    2.3258    1.1482 C.ar    1  UNL11       0.0359
     22 C          -1.1209    3.5796    1.7619 C.ar    1  UNL11      -0.0501
     23 C           0.0340    4.3158    1.6484 C.ar    1  UNL11      -0.0610
     24 C           1.1100    3.8395    0.9370 C.ar    1  UNL11      -0.0610
     25 C           1.0264    2.5844    0.3188 C.ar    1  UNL11      -0.0476
     26 C          -0.1191    1.8374    0.4220 C.ar    1  UNL11       0.0572
     27 H           0.3894   -2.5078   -2.2753 H       1  UNL11       0.0565
     28 H           1.6878   -2.8608   -3.4739 H       1  UNL11       0.0565
     29 H           2.8290   -0.7383   -2.9662 H       1  UNL11       0.0676
     30 H           1.1117    0.5758   -3.7888 H       1  UNL11       0.2101
     31 H           2.3117   -0.3898   -0.6631 H       1  UNL11       0.1052
     32 H           1.5941    0.9114   -1.6080 H       1  UNL11       0.1052
     33 H          -4.2570   -0.4864    0.9863 H       1  UNL11       0.0624
     34 H          -5.3143   -2.6206    0.3147 H       1  UNL11       0.0618
     35 H          -4.0936   -4.2402   -1.0683 H       1  UNL11       0.0618
     36 H          -1.7778   -3.7490   -1.8084 H       1  UNL11       0.0627
     37 H          -1.9737    3.9404    2.3172 H       1  UNL11       0.0625
     38 H           0.1002    5.2805    2.1226 H       1  UNL11       0.0618
     39 H           2.0331    4.3681    0.8152 H       1  UNL11       0.0618
     40 H           1.8664    2.2233   -0.2199 H       1  UNL11       0.0626
     41 H           1.3123   -4.3693    1.1638 H       1  UNL11       0.2280
@<TRIPOS>BOND
     1     1     2    2
     2     2     3    2
     3     3     4    1
     4     4     5    1
     5     4    27    1
     6     4    28    1
     7     5     6    1
     8     5     7    1
     9     5    29    1
    10     6    30    1
    11     7     8    1
    12     7    31    1
    13     7    32    1
    14     8     9    1
    15     9    10    2
    16    10    11    1
    17    10    19    1
    18    11    12   ar
    19    12    13   ar
    20    12    33    1
    21    13    14   ar
    22    13    34    1
    23    14    15   ar
    24    14    35    1
    25    15    16   ar
    26    15    36    1
    27    16    17    1
    28    16    11   ar
    29    17    18    2
    30    17     8   am
    31    19    20    2
    32    19    21    1
    33    21    22   ar
    34    22    23   ar
    35    22    37    1
    36    23    24   ar
    37    23    38    1
    38    24    25   ar
    39    24    39    1
    40    25    26   ar
    41    25    40    1
    42    26    21   ar
    43    26     9    1
    44     1    41    1
@<TRIPOS>MOLECULE
*****
 41 44 0 0 0
SMALL
GASTEIGER

@<TRIPOS>ATOM
      1 N           0.0984    3.1027    2.2524 N.2     1  UNL11      -0.1276
      2 N           0.5292    1.9992    1.9484 N.2     1  UNL11      -0.1974
      3 N           0.9304    1.0845    1.1974 N.2     1  UNL11      -0.1095
      4 C           2.2260    1.1050    0.5795 C.3     1  UNL11       0.1058
      5 C           2.1674    1.0811   -0.9209 C.3     1  UNL11       0.1357
      6 O           3.4461    1.0868   -1.4341 O.3     1  UNL11      -0.3836
      7 C           1.4825   -0.2182   -1.3321 C.3     1  UNL11       0.1755
      8 N           0.1587   -0.3656   -0.8558 N.am    1  UNL11      -0.1275
      9 C          -0.5045    0.5110   -0.1061 C.2     1  UNL11       0.2235
     10 C          -1.8112    0.2635    0.3268 C.2     1  UNL11       0.1014
     11 C          -2.4319   -0.9192   -0.0304 C.ar    1  UNL11       0.0090
     12 C          -3.7261   -1.2104    0.3744 C.ar    1  UNL11      -0.0528
     13 C          -4.3045   -2.4023   -0.0059 C.ar    1  UNL11      -0.0611
     14 C          -3.6174   -3.3104   -0.7825 C.ar    1  UNL11      -0.0608
     15 C          -2.3310   -3.0279   -1.1885 C.ar    1  UNL11      -0.0442
     16 C          -1.7516   -1.8288   -0.8048 C.ar    1  UNL11       0.0971
     17 C          -0.4791   -1.5273   -1.1948 C.2     1  UNL11       0.4164
     18 O           0.1142   -2.3889   -1.9061 O.2     1  UNL11      -0.2140
     19 C          -2.3087    1.3725    1.1209 C.2     1  UNL11       0.2008
     20 O          -3.4191    1.5329    1.6828 O.2     1  UNL11      -0.2864
     21 C          -1.2138    2.3258    1.1482 C.ar    1  UNL11       0.0359
     22 C          -1.1209    3.5796    1.7619 C.ar    1  UNL11      -0.0501
     23 C           0.0340    4.3158    1.6484 C.ar    1  UNL11      -0.0610
     24 C           1.1100    3.8395    0.9370 C.ar    1  UNL11      -0.0610
     25 C           1.0264    2.5844    0.3188 C.ar    1  UNL11      -0.0476
     26 C          -0.1191    1.8374    0.4220 C.ar    1  UNL11       0.0572
     27 H           2.8833    0.2701    0.9321 H       1  UNL11       0.0565
     28 H           2.7324    2.0645    0.8679 H       1  UNL11       0.0565
     29 H           1.5880    1.9595   -1.3103 H       1  UNL11       0.0676
     30 H           3.4327    1.1228   -2.4283 H       1  UNL11       0.2101
     31 H           1.7019   -0.4241   -2.3685 H       1  UNL11       0.1052
     32 H           2.1131   -1.0203   -0.7634 H       1  UNL11       0.1052
     33 H          -4.2570   -0.4864    0.9863 H       1  UNL11       0.0624
     34 H          -5.3143   -2.6206    0.3147 H       1  UNL11       0.0618
     35 H          -4.0936   -4.2402   -1.0683 H       1  UNL11       0.0618
     36 H          -1.7778   -3.7490   -1.8084 H       1  UNL11       0.0627
     37 H          -1.9737    3.9404    2.3172 H       1  UNL11       0.0625
     38 H           0.1002    5.2805    2.1226 H       1  UNL11       0.0618
     39 H           2.0331    4.3681    0.8152 H       1  UNL11       0.0618
     40 H           1.8664    2.2233   -0.2199 H       1  UNL11       0.0626
     41 H          -0.2072    3.2757    3.1721 H       1  UNL11       0.2280
@<TRIPOS>BOND
     1     1     2    2
     2     2     3    2
     3     3     4    1
     4     4     5    1
     5     4    27    1
     6     4    28    1
     7     5     6    1
     8     5     7    1
     9     5    29    1
    10     6    30    1
    11     7     8    1
    12     7    31    1
    13     7    32    1
    14     8     9    1
    15     9    10    2
    16    10    11    1
    17    10    19    1
    18    11    12   ar
    19    12    13   ar
    20    12    33    1
    21    13    14   ar
    22    13    34    1
    23    14    15   ar
    24    14    35    1
    25    15    16   ar
    26    15    36    1
    27    16    17    1
    28    16    11   ar
    29    17    18    2
    30    17     8   am
    31    19    20    2
    32    19    21    1
    33    21    22   ar
    34    22    23   ar
    35    22    37    1
    36    23    24   ar
    37    23    38    1
    38    24    25   ar
    39    24    39    1
    40    25    26   ar
    41    25    40    1
    42    26    21   ar
    43    26     9    1
    44     1    41    1
@<TRIPOS>MOLECULE
*****
 41 44 0 0 0
SMALL
GASTEIGER

@<TRIPOS>ATOM
      1 N          -0.0812    3.0483    2.1384 N.2     1  UNL11      -0.1276
      2 N           0.4213    1.9626    1.8847 N.2     1  UNL11      -0.1974
      3 N           0.8911    1.0464    1.1765 N.2     1  UNL11      -0.1095
      4 C           2.1942    1.1229    0.5792 C.3     1  UNL11       0.1058
      5 C           2.5414   -0.0853   -0.2424 C.3     1  UNL11       0.1357
      6 O           2.5015   -1.2112    0.5506 O.3     1  UNL11      -0.3836
      7 C           1.4825   -0.2182   -1.3321 C.3     1  UNL11       0.1755
      8 N           0.1587   -0.3656   -0.8558 N.am    1  UNL11      -0.1275
      9 C          -0.5045    0.5110   -0.1061 C.2     1  UNL11       0.2235
     10 C          -1.8112    0.2635    0.3268 C.2     1  UNL11       0.1014
     11 C          -2.4319   -0.9192   -0.0304 C.ar    1  UNL11       0.0090
     12 C          -3.7261   -1.2104    0.3744 C.ar    1  UNL11      -0.0528
     13 C          -4.3045   -2.4023   -0.0059 C.ar    1  UNL11      -0.0611
     14 C          -3.6174   -3.3104   -0.7825 C.ar    1  UNL11      -0.0608
     15 C          -2.3310   -3.0279   -1.1885 C.ar    1  UNL11      -0.0442
     16 C          -1.7516   -1.8288   -0.8048 C.ar    1  UNL11       0.0971
     17 C          -0.4791   -1.5273   -1.1948 C.2     1  UNL11       0.4164
     18 O           0.1142   -2.3889   -1.9061 O.2     1  UNL11      -0.2140
     19 C          -2.3087    1.3725    1.1209 C.2     1  UNL11       0.2008
     20 O          -3.4191    1.5329    1.6828 O.2     1  UNL11      -0.2864
     21 C          -1.2138    2.3258    1.1482 C.ar    1  UNL11       0.0359
     22 C          -1.1209    3.5796    1.7619 C.ar    1  UNL11      -0.0501
     23 C           0.0340    4.3158    1.6484 C.ar    1  UNL11      -0.0610
     24 C           1.1100    3.8395    0.9370 C.ar    1  UNL11      -0.0610
     25 C           1.0264    2.5844    0.3188 C.ar    1  UNL11      -0.0476
     26 C          -0.1191    1.8374    0.4220 C.ar    1  UNL11       0.0572
     27 H           3.0031    1.2954    1.3337 H       1  UNL11       0.0565
     28 H           2.2045    2.0021   -0.1187 H       1  UNL11       0.0565
     29 H           3.5567    0.0279   -0.7067 H       1  UNL11       0.0676
     30 H           2.7781   -2.0189    0.0398 H       1  UNL11       0.2101
     31 H           1.6899    0.4908   -2.1188 H       1  UNL11       0.1052
     32 H           1.7577   -1.2433   -1.8200 H       1  UNL11       0.1052
     33 H          -4.2570   -0.4864    0.9863 H       1  UNL11       0.0624
     34 H          -5.3143   -2.6206    0.3147 H       1  UNL11       0.0618
     35 H          -4.0936   -4.2402   -1.0683 H       1  UNL11       0.0618
     36 H          -1.7778   -3.7490   -1.8084 H       1  UNL11       0.0627
     37 H          -1.9737    3.9404    2.3172 H       1  UNL11       0.0625
     38 H           0.1002    5.2805    2.1226 H       1  UNL11       0.0618
     39 H           2.0331    4.3681    0.8152 H       1  UNL11       0.0618
     40 H           1.8664    2.2233   -0.2199 H       1  UNL11       0.0626
     41 H          -0.4136    3.2369    3.0457 H       1  UNL11       0.2280
@<TRIPOS>BOND
     1     1     2    2
     2     2     3    2
     3     3     4    1
     4     4     5    1
     5     4    27    1
     6     4    28    1
     7     5     6    1
     8     5     7    1
     9     5    29    1
    10     6    30    1
    11     7     8    1
    12     7    31    1
    13     7    32    1
    14     8     9    1
    15     9    10    2
    16    10    11    1
    17    10    19    1
    18    11    12   ar
    19    12    13   ar
    20    12    33    1
    21    13    14   ar
    22    13    34    1
    23    14    15   ar
    24    14    35    1
    25    15    16   ar
    26    15    36    1
    27    16    17    1
    28    16    11   ar
    29    17    18    2
    30    17     8   am
    31    19    20    2
    32    19    21    1
    33    21    22   ar
    34    22    23   ar
    35    22    37    1
    36    23    24   ar
    37    23    38    1
    38    24    25   ar
    39    24    39    1
    40    25    26   ar
    41    25    40    1
    42    26    21   ar
    43    26     9    1
    44     1    41    1
@<TRIPOS>MOLECULE
*****
 41 44 0 0 0
SMALL
GASTEIGER

@<TRIPOS>ATOM
      1 N          -0.7146   -0.9497    0.1684 N.2     1  UNL11      -0.1276
      2 N           0.1068   -0.3593    0.8557 N.2     1  UNL11      -0.1974
      3 N           1.1533   -0.1992    1.5198 N.2     1  UNL11      -0.1095
      4 C           2.4428   -0.0537    0.9059 C.3     1  UNL11       0.1058
      5 C           2.5593   -0.7748   -0.4062 C.3     1  UNL11       0.1357
      6 O           2.3262   -2.1195   -0.2176 O.3     1  UNL11      -0.3836
      7 C           1.4825   -0.2182   -1.3321 C.3     1  UNL11       0.1755
      8 N           0.1587   -0.3656   -0.8558 N.am    1  UNL11      -0.1275
      9 C          -0.5045    0.5110   -0.1061 C.2     1  UNL11       0.2235
     10 C          -1.8112    0.2635    0.3268 C.2     1  UNL11       0.1014
     11 C          -2.4319   -0.9192   -0.0304 C.ar    1  UNL11       0.0090
     12 C          -3.7261   -1.2104    0.3744 C.ar    1  UNL11      -0.0528
     13 C          -4.3045   -2.4023   -0.0059 C.ar    1  UNL11      -0.0611
     14 C          -3.6174   -3.3104   -0.7825 C.ar    1  UNL11      -0.0608
     15 C          -2.3310   -3.0279   -1.1885 C.ar    1  UNL11      -0.0442
     16 C          -1.7516   -1.8288   -0.8048 C.ar    1  UNL11       0.0971
     17 C          -0.4791   -1.5273   -1.1948 C.2     1  UNL11       0.4164
     18 O           0.1142   -2.3889   -1.9061 O.2     1  UNL11      -0.2140
     19 C          -2.3087    1.3725    1.1209 C.2     1  UNL11       0.2008
     20 O          -3.4191    1.5329    1.6828 O.2     1  UNL11      -0.2864
     21 C          -1.2138    2.3258    1.1482 C.ar    1  UNL11       0.0359
     22 C          -1.1209    3.5796    1.7619 C.ar    1  UNL11      -0.0501
     23 C           0.0340    4.3158    1.6484 C.ar    1  UNL11      -0.0610
     24 C           1.1100    3.8395    0.9370 C.ar    1  UNL11      -0.0610
     25 C           1.0264    2.5844    0.3188 C.ar    1  UNL11      -0.0476
     26 C          -0.1191    1.8374    0.4220 C.ar    1  UNL11       0.0572
     27 H           3.2773   -0.3808    1.5769 H       1  UNL11       0.0565
     28 H           2.6034    1.0363    0.6910 H       1  UNL11       0.0565
     29 H           3.5735   -0.6154   -0.8590 H       1  UNL11       0.0676
     30 H           2.4482   -2.6264   -1.0650 H       1  UNL11       0.2101
     31 H           1.8056    0.7349   -1.7218 H       1  UNL11       0.1052
     32 H           1.5644   -0.9248   -2.2587 H       1  UNL11       0.1052
     33 H          -4.2570   -0.4864    0.9863 H       1  UNL11       0.0624
     34 H          -5.3143   -2.6206    0.3147 H       1  UNL11       0.0618
     35 H          -4.0936   -4.2402   -1.0683 H       1  UNL11       0.0618
     36 H          -1.7778   -3.7490   -1.8084 H       1  UNL11       0.0627
     37 H          -1.9737    3.9404    2.3172 H       1  UNL11       0.0625
     38 H           0.1002    5.2805    2.1226 H       1  UNL11       0.0618
     39 H           2.0331    4.3681    0.8152 H       1  UNL11       0.0618
     40 H           1.8664    2.2233   -0.2199 H       1  UNL11       0.0626
     41 H          -1.5915   -0.5399   -0.0115 H       1  UNL11       0.2280
@<TRIPOS>BOND
     1     1     2    2
     2     2     3    2
     3     3     4    1
     4     4     5    1
     5     4    27    1
     6     4    28    1
     7     5     6    1
     8     5     7    1
     9     5    29    1
    10     6    30    1
    11     7     8    1
    12     7    31    1
    13     7    32    1
    14     8     9    1
    15     9    10    2
    16    10    11    1
    17    10    19    1
    18    11    12   ar
    19    12    13   ar
    20    12    33    1
    21    13    14   ar
    22    13    34    1
    23    14    15   ar
    24    14    35    1
    25    15    16   ar
    26    15    36    1
    27    16    17    1
    28    16    11   ar
    29    17    18    2
    30    17     8   am
    31    19    20    2
    32    19    21    1
    33    21    22   ar
    34    22    23   ar
    35    22    37    1
    36    23    24   ar
    37    23    38    1
    38    24    25   ar
    39    24    39    1
    40    25    26   ar
    41    25    40    1
    42    26    21   ar
    43    26     9    1
    44     1    41    1
@<TRIPOS>MOLECULE
*****
 41 44 0 0 0
SMALL
GASTEIGER

@<TRIPOS>ATOM
      1 N           0.5417   -0.4545    3.0483 N.2     1  UNL11      -0.1276
      2 N           0.5735    0.1470    1.9840 N.2     1  UNL11      -0.1974
      3 N           0.8911    1.0464    1.1765 N.2     1  UNL11      -0.1095
      4 C           2.1942    1.1229    0.5792 C.3     1  UNL11       0.1058
      5 C           2.5414   -0.0853   -0.2424 C.3     1  UNL11       0.1357
      6 O           2.5015   -1.2112    0.5506 O.3     1  UNL11      -0.3836
      7 C           1.4825   -0.2182   -1.3321 C.3     1  UNL11       0.1755
      8 N           0.1587   -0.3656   -0.8558 N.am    1  UNL11      -0.1275
      9 C          -0.5045    0.5110   -0.1061 C.2     1  UNL11       0.2235
     10 C          -1.8112    0.2635    0.3268 C.2     1  UNL11       0.1014
     11 C          -2.4319   -0.9192   -0.0304 C.ar    1  UNL11       0.0090
     12 C          -3.7261   -1.2104    0.3744 C.ar    1  UNL11      -0.0528
     13 C          -4.3045   -2.4023   -0.0059 C.ar    1  UNL11      -0.0611
     14 C          -3.6174   -3.3104   -0.7825 C.ar    1  UNL11      -0.0608
     15 C          -2.3310   -3.0279   -1.1885 C.ar    1  UNL11      -0.0442
     16 C          -1.7516   -1.8288   -0.8048 C.ar    1  UNL11       0.0971
     17 C          -0.4791   -1.5273   -1.1948 C.2     1  UNL11       0.4164
     18 O           0.1142   -2.3889   -1.9061 O.2     1  UNL11      -0.2140
     19 C          -2.3087    1.3725    1.1209 C.2     1  UNL11       0.2008
     20 O          -3.4191    1.5329    1.6828 O.2     1  UNL11      -0.2864
     21 C          -1.2138    2.3258    1.1482 C.ar    1  UNL11       0.0359
     22 C          -1.1209    3.5796    1.7619 C.ar    1  UNL11      -0.0501
     23 C           0.0340    4.3158    1.6484 C.ar    1  UNL11      -0.0610
     24 C           1.1100    3.8395    0.9370 C.ar    1  UNL11      -0.0610
     25 C           1.0264    2.5844    0.3188 C.ar    1  UNL11      -0.0476
     26 C          -0.1191    1.8374    0.4220 C.ar    1  UNL11       0.0572
     27 H           3.0031    1.2954    1.3337 H       1  UNL11       0.0565
     28 H           2.2045    2.0021   -0.1187 H       1  UNL11       0.0565
     29 H           3.5567    0.0279   -0.7067 H       1  UNL11       0.0676
     30 H           2.7781   -2.0189    0.0398 H       1  UNL11       0.2101
     31 H           1.6899    0.4908   -2.1188 H       1  UNL11       0.1052
     32 H           1.7577   -1.2433   -1.8200 H       1  UNL11       0.1052
     33 H          -4.2570   -0.4864    0.9863 H       1  UNL11       0.0624
     34 H          -5.3143   -2.6206    0.3147 H       1  UNL11       0.0618
     35 H          -4.0936   -4.2402   -1.0683 H       1  UNL11       0.0618
     36 H          -1.7778   -3.7490   -1.8084 H       1  UNL11       0.0627
     37 H          -1.9737    3.9404    2.3172 H       1  UNL11       0.0625
     38 H           0.1002    5.2805    2.1226 H       1  UNL11       0.0618
     39 H           2.0331    4.3681    0.8152 H       1  UNL11       0.0618
     40 H           1.8664    2.2233   -0.2199 H       1  UNL11       0.0626
     41 H          -0.0934   -1.1958    3.1760 H       1  UNL11       0.2280
@<TRIPOS>BOND
     1     1     2    2
     2     2     3    2
     3     3     4    1
     4     4     5    1
     5     4    27    1
     6     4    28    1
     7     5     6    1
     8     5     7    1
     9     5    29    1
    10     6    30    1
    11     7     8    1
    12     7    31    1
    13     7    32    1
    14     8     9    1
    15     9    10    2
    16    10    11    1
    17    10    19    1
    18    11    12   ar
    19    12    13   ar
    20    12    33    1
    21    13    14   ar
    22    13    34    1
    23    14    15   ar
    24    14    35    1
    25    15    16   ar
    26    15    36    1
    27    16    17    1
    28    16    11   ar
    29    17    18    2
    30    17     8   am
    31    19    20    2
    32    19    21    1
    33    21    22   ar
    34    22    23   ar
    35    22    37    1
    36    23    24   ar
    37    23    38    1
    38    24    25   ar
    39    24    39    1
    40    25    26   ar
    41    25    40    1
    42    26    21   ar
    43    26     9    1
    44     1    41    1
@<TRIPOS>MOLECULE
*****
 41 44 0 0 0
SMALL
GASTEIGER

@<TRIPOS>ATOM
      1 N           4.7022   -2.5631   -1.5398 N.2     1  UNL11      -0.1276
      2 N           3.5623   -3.0040   -1.5845 N.2     1  UNL11      -0.1974
      3 N           2.3157   -2.9892   -1.4977 N.2     1  UNL11      -0.1095
      4 C           1.4800   -2.3689   -2.4864 C.3     1  UNL11       0.1058
      5 C           1.7609   -0.9046   -2.6654 C.3     1  UNL11       0.1357
      6 O           0.9103   -0.3830   -3.6156 O.3     1  UNL11      -0.3836
      7 C           1.4825   -0.2182   -1.3321 C.3     1  UNL11       0.1755
      8 N           0.1587   -0.3656   -0.8558 N.am    1  UNL11      -0.1275
      9 C          -0.5045    0.5110   -0.1061 C.2     1  UNL11       0.2235
     10 C          -1.8112    0.2635    0.3268 C.2     1  UNL11       0.1014
     11 C          -2.4319   -0.9192   -0.0304 C.ar    1  UNL11       0.0090
     12 C          -3.7261   -1.2104    0.3744 C.ar    1  UNL11      -0.0528
     13 C          -4.3045   -2.4023   -0.0059 C.ar    1  UNL11      -0.0611
     14 C          -3.6174   -3.3104   -0.7825 C.ar    1  UNL11      -0.0608
     15 C          -2.3310   -3.0279   -1.1885 C.ar    1  UNL11      -0.0442
     16 C          -1.7516   -1.8288   -0.8048 C.ar    1  UNL11       0.0971
     17 C          -0.4791   -1.5273   -1.1948 C.2     1  UNL11       0.4164
     18 O           0.1142   -2.3889   -1.9061 O.2     1  UNL11      -0.2140
     19 C          -2.3087    1.3725    1.1209 C.2     1  UNL11       0.2008
     20 O          -3.4191    1.5329    1.6828 O.2     1  UNL11      -0.2864
     21 C          -1.2138    2.3258    1.1482 C.ar    1  UNL11       0.0359
     22 C          -1.1209    3.5796    1.7619 C.ar    1  UNL11      -0.0501
     23 C           0.0340    4.3158    1.6484 C.ar    1  UNL11      -0.0610
     24 C           1.1100    3.8395    0.9370 C.ar    1  UNL11      -0.0610
     25 C           1.0264    2.5844    0.3188 C.ar    1  UNL11      -0.0476
     26 C          -0.1191    1.8374    0.4220 C.ar    1  UNL11       0.0572
     27 H           0.3894   -2.5078   -2.2753 H       1  UNL11       0.0565
     28 H           1.6878   -2.8608   -3.4739 H       1  UNL11       0.0565
     29 H           2.8290   -0.7383   -2.9662 H       1  UNL11       0.0676
     30 H           1.1117    0.5758   -3.7888 H       1  UNL11       0.2101
     31 H           2.3117   -0.3898   -0.6631 H       1  UNL11       0.1052
     32 H           1.5941    0.9114   -1.6080 H       1  UNL11       0.1052
     33 H          -4.2570   -0.4864    0.9863 H       1  UNL11       0.0624
     34 H          -5.3143   -2.6206    0.3147 H       1  UNL11       0.0618
     35 H          -4.0936   -4.2402   -1.0683 H       1  UNL11       0.0618
     36 H          -1.7778   -3.7490   -1.8084 H       1  UNL11       0.0627
     37 H          -1.9737    3.9404    2.3172 H       1  UNL11       0.0625
     38 H           0.1002    5.2805    2.1226 H       1  UNL11       0.0618
     39 H           2.0331    4.3681    0.8152 H       1  UNL11       0.0618
     40 H           1.8664    2.2233   -0.2199 H       1  UNL11       0.0626
     41 H           5.4699   -3.1763   -1.6017 H       1  UNL11       0.2280
@<TRIPOS>BOND
     1     1     2    2
     2     2     3    2
     3     3     4    1
     4     4     5    1
     5     4    27    1
     6     4    28    1
     7     5     6    1
     8     5     7    1
     9     5    29    1
    10     6    30    1
    11     7     8    1
    12     7    31    1
    13     7    32    1
    14     8     9    1
    15     9    10    2
    16    10    11    1
    17    10    19    1
    18    11    12   ar
    19    12    13   ar
    20    12    33    1
    21    13    14   ar
    22    13    34    1
    23    14    15   ar
    24    14    35    1
    25    15    16   ar
    26    15    36    1
    27    16    17    1
    28    16    11   ar
    29    17    18    2
    30    17     8   am
    31    19    20    2
    32    19    21    1
    33    21    22   ar
    34    22    23   ar
    35    22    37    1
    36    23    24   ar
    37    23    38    1
    38    24    25   ar
    39    24    39    1
    40    25    26   ar
    41    25    40    1
    42    26    21   ar
    43    26     9    1
    44     1    41    1
@<TRIPOS>MOLECULE
*****
 41 44 0 0 0
SMALL
GASTEIGER

@<TRIPOS>ATOM
      1 N           3.6049   -1.3909    0.0549 N.2     1  UNL11      -0.1276
      2 N           3.9213   -0.2770   -0.3384 N.2     1  UNL11      -0.1974
      3 N           4.2561    0.6048   -1.1583 N.2     1  UNL11      -0.1095
      4 C           3.3286    1.1906   -2.0842 C.3     1  UNL11       0.1058
      5 C           1.9183    1.2241   -1.5690 C.3     1  UNL11       0.1357
      6 O           1.0919    1.7839   -2.5187 O.3     1  UNL11      -0.3836
      7 C           1.4825   -0.2182   -1.3321 C.3     1  UNL11       0.1755
      8 N           0.1587   -0.3656   -0.8558 N.am    1  UNL11      -0.1275
      9 C          -0.5045    0.5110   -0.1061 C.2     1  UNL11       0.2235
     10 C          -1.8112    0.2635    0.3268 C.2     1  UNL11       0.1014
     11 C          -2.4319   -0.9192   -0.0304 C.ar    1  UNL11       0.0090
     12 C          -3.7261   -1.2104    0.3744 C.ar    1  UNL11      -0.0528
     13 C          -4.3045   -2.4023   -0.0059 C.ar    1  UNL11      -0.0611
     14 C          -3.6174   -3.3104   -0.7825 C.ar    1  UNL11      -0.0608
     15 C          -2.3310   -3.0279   -1.1885 C.ar    1  UNL11      -0.0442
     16 C          -1.7516   -1.8288   -0.8048 C.ar    1  UNL11       0.0971
     17 C          -0.4791   -1.5273   -1.1948 C.2     1  UNL11       0.4164
     18 O           0.1142   -2.3889   -1.9061 O.2     1  UNL11      -0.2140
     19 C          -2.3087    1.3725    1.1209 C.2     1  UNL11       0.2008
     20 O          -3.4191    1.5329    1.6828 O.2     1  UNL11      -0.2864
     21 C          -1.2138    2.3258    1.1482 C.ar    1  UNL11       0.0359
     22 C          -1.1209    3.5796    1.7619 C.ar    1  UNL11      -0.0501
     23 C           0.0340    4.3158    1.6484 C.ar    1  UNL11      -0.0610
     24 C           1.1100    3.8395    0.9370 C.ar    1  UNL11      -0.0610
     25 C           1.0264    2.5844    0.3188 C.ar    1  UNL11      -0.0476
     26 C          -0.1191    1.8374    0.4220 C.ar    1  UNL11       0.0572
     27 H           3.3400    0.6836   -3.0823 H       1  UNL11       0.0565
     28 H           3.6357    2.2567   -2.2548 H       1  UNL11       0.0565
     29 H           1.8588    1.8046   -0.6106 H       1  UNL11       0.0676
     30 H           0.1599    1.8638   -2.1799 H       1  UNL11       0.2101
     31 H           1.8262   -0.8331   -2.1497 H       1  UNL11       0.1052
     32 H           2.1734   -0.5427   -0.4479 H       1  UNL11       0.1052
     33 H          -4.2570   -0.4864    0.9863 H       1  UNL11       0.0624
     34 H          -5.3143   -2.6206    0.3147 H       1  UNL11       0.0618
     35 H          -4.0936   -4.2402   -1.0683 H       1  UNL11       0.0618
     36 H          -1.7778   -3.7490   -1.8084 H       1  UNL11       0.0627
     37 H          -1.9737    3.9404    2.3172 H       1  UNL11       0.0625
     38 H           0.1002    5.2805    2.1226 H       1  UNL11       0.0618
     39 H           2.0331    4.3681    0.8152 H       1  UNL11       0.0618
     40 H           1.8664    2.2233   -0.2199 H       1  UNL11       0.0626
     41 H           3.5590   -1.5775    1.0204 H       1  UNL11       0.2280
@<TRIPOS>BOND
     1     1     2    2
     2     2     3    2
     3     3     4    1
     4     4     5    1
     5     4    27    1
     6     4    28    1
     7     5     6    1
     8     5     7    1
     9     5    29    1
    10     6    30    1
    11     7     8    1
    12     7    31    1
    13     7    32    1
    14     8     9    1
    15     9    10    2
    16    10    11    1
    17    10    19    1
    18    11    12   ar
    19    12    13   ar
    20    12    33    1
    21    13    14   ar
    22    13    34    1
    23    14    15   ar
    24    14    35    1
    25    15    16   ar
    26    15    36    1
    27    16    17    1
    28    16    11   ar
    29    17    18    2
    30    17     8   am
    31    19    20    2
    32    19    21    1
    33    21    22   ar
    34    22    23   ar
    35    22    37    1
    36    23    24   ar
    37    23    38    1
    38    24    25   ar
    39    24    39    1
    40    25    26   ar
    41    25    40    1
    42    26    21   ar
    43    26     9    1
    44     1    41    1
@<TRIPOS>MOLECULE
*****
 41 44 0 0 0
SMALL
GASTEIGER

@<TRIPOS>ATOM
      1 N          -0.1914   -1.7931    1.0939 N.2     1  UNL11      -0.1276
      2 N           0.2354   -2.5709    0.2521 N.2     1  UNL11      -0.1974
      3 N           0.6364   -2.9513   -0.8687 N.2     1  UNL11      -0.1095
      4 C           1.9359   -2.6162   -1.3786 C.3     1  UNL11       0.1058
      5 C           2.4515   -1.3011   -0.8687 C.3     1  UNL11       0.1357
      6 O           3.6906   -1.0468   -1.4148 O.3     1  UNL11      -0.3836
      7 C           1.4825   -0.2182   -1.3321 C.3     1  UNL11       0.1755
      8 N           0.1587   -0.3656   -0.8558 N.am    1  UNL11      -0.1275
      9 C          -0.5045    0.5110   -0.1061 C.2     1  UNL11       0.2235
     10 C          -1.8112    0.2635    0.3268 C.2     1  UNL11       0.1014
     11 C          -2.4319   -0.9192   -0.0304 C.ar    1  UNL11       0.0090
     12 C          -3.7261   -1.2104    0.3744 C.ar    1  UNL11      -0.0528
     13 C          -4.3045   -2.4023   -0.0059 C.ar    1  UNL11      -0.0611
     14 C          -3.6174   -3.3104   -0.7825 C.ar    1  UNL11      -0.0608
     15 C          -2.3310   -3.0279   -1.1885 C.ar    1  UNL11      -0.0442
     16 C          -1.7516   -1.8288   -0.8048 C.ar    1  UNL11       0.0971
     17 C          -0.4791   -1.5273   -1.1948 C.2     1  UNL11       0.4164
     18 O           0.1142   -2.3889   -1.9061 O.2     1  UNL11      -0.2140
     19 C          -2.3087    1.3725    1.1209 C.2     1  UNL11       0.2008
     20 O          -3.4191    1.5329    1.6828 O.2     1  UNL11      -0.2864
     21 C          -1.2138    2.3258    1.1482 C.ar    1  UNL11       0.0359
     22 C          -1.1209    3.5796    1.7619 C.ar    1  UNL11      -0.0501
     23 C           0.0340    4.3158    1.6484 C.ar    1  UNL11      -0.0610
     24 C           1.1100    3.8395    0.9370 C.ar    1  UNL11      -0.0610
     25 C           1.0264    2.5844    0.3188 C.ar    1  UNL11      -0.0476
     26 C          -0.1191    1.8374    0.4220 C.ar    1  UNL11       0.0572
     27 H           1.9702   -2.6121   -2.4976 H       1  UNL11       0.0565
     28 H           2.6577   -3.4028   -1.0316 H       1  UNL11       0.0565
     29 H           2.5135   -1.3057    0.2517 H       1  UNL11       0.0676
     30 H           4.0756   -0.2042   -1.0519 H       1  UNL11       0.2101
     31 H           1.9672    0.7440   -1.2697 H       1  UNL11       0.1052
     32 H           1.4268   -0.4127   -2.4826 H       1  UNL11       0.1052
     33 H          -4.2570   -0.4864    0.9863 H       1  UNL11       0.0624
     34 H          -5.3143   -2.6206    0.3147 H       1  UNL11       0.0618
     35 H          -4.0936   -4.2402   -1.0683 H       1  UNL11       0.0618
     36 H          -1.7778   -3.7490   -1.8084 H       1  UNL11       0.0627
     37 H          -1.9737    3.9404    2.3172 H       1  UNL11       0.0625
     38 H           0.1002    5.2805    2.1226 H       1  UNL11       0.0618
     39 H           2.0331    4.3681    0.8152 H       1  UNL11       0.0618
     40 H           1.8664    2.2233   -0.2199 H       1  UNL11       0.0626
     41 H          -0.5017   -2.1319    1.9647 H       1  UNL11       0.2280
@<TRIPOS>BOND
     1     1     2    2
     2     2     3    2
     3     3     4    1
     4     4     5    1
     5     4    27    1
     6     4    28    1
     7     5     6    1
     8     5     7    1
     9     5    29    1
    10     6    30    1
    11     7     8    1
    12     7    31    1
    13     7    32    1
    14     8     9    1
    15     9    10    2
    16    10    11    1
    17    10    19    1
    18    11    12   ar
    19    12    13   ar
    20    12    33    1
    21    13    14   ar
    22    13    34    1
    23    14    15   ar
    24    14    35    1
    25    15    16   ar
    26    15    36    1
    27    16    17    1
    28    16    11   ar
    29    17    18    2
    30    17     8   am
    31    19    20    2
    32    19    21    1
    33    21    22   ar
    34    22    23   ar
    35    22    37    1
    36    23    24   ar
    37    23    38    1
    38    24    25   ar
    39    24    39    1
    40    25    26   ar
    41    25    40    1
    42    26    21   ar
    43    26     9    1
    44     1    41    1
@<TRIPOS>MOLECULE
*****
 41 44 0 0 0
SMALL
GASTEIGER

@<TRIPOS>ATOM
      1 N           1.0676   -2.1281    3.5622 N.2     1  UNL11      -0.1276
      2 N           1.0491   -2.0297    2.3434 N.2     1  UNL11      -0.1974
      3 N           1.1914   -1.4843    1.2280 N.2     1  UNL11      -0.1095
      4 C           2.4797   -1.2690    0.6324 C.3     1  UNL11       0.1058
      5 C           2.4515   -1.3011   -0.8687 C.3     1  UNL11       0.1357
      6 O           1.9830   -2.5241   -1.2967 O.3     1  UNL11      -0.3836
      7 C           1.4825   -0.2182   -1.3321 C.3     1  UNL11       0.1755
      8 N           0.1587   -0.3656   -0.8558 N.am    1  UNL11      -0.1275
      9 C          -0.5045    0.5110   -0.1061 C.2     1  UNL11       0.2235
     10 C          -1.8112    0.2635    0.3268 C.2     1  UNL11       0.1014
     11 C          -2.4319   -0.9192   -0.0304 C.ar    1  UNL11       0.0090
     12 C          -3.7261   -1.2104    0.3744 C.ar    1  UNL11      -0.0528
     13 C          -4.3045   -2.4023   -0.0059 C.ar    1  UNL11      -0.0611
     14 C          -3.6174   -3.3104   -0.7825 C.ar    1  UNL11      -0.0608
     15 C          -2.3310   -3.0279   -1.1885 C.ar    1  UNL11      -0.0442
     16 C          -1.7516   -1.8288   -0.8048 C.ar    1  UNL11       0.0971
     17 C          -0.4791   -1.5273   -1.1948 C.2     1  UNL11       0.4164
     18 O           0.1142   -2.3889   -1.9061 O.2     1  UNL11      -0.2140
     19 C          -2.3087    1.3725    1.1209 C.2     1  UNL11       0.2008
     20 O          -3.4191    1.5329    1.6828 O.2     1  UNL11      -0.2864
     21 C          -1.2138    2.3258    1.1482 C.ar    1  UNL11       0.0359
     22 C          -1.1209    3.5796    1.7619 C.ar    1  UNL11      -0.0501
     23 C           0.0340    4.3158    1.6484 C.ar    1  UNL11      -0.0610
     24 C           1.1100    3.8395    0.9370 C.ar    1  UNL11      -0.0610
     25 C           1.0264    2.5844    0.3188 C.ar    1  UNL11      -0.0476
     26 C          -0.1191    1.8374    0.4220 C.ar    1  UNL11       0.0572
     27 H           3.2489   -1.9957    0.9982 H       1  UNL11       0.0565
     28 H           2.8310   -0.2443    0.9272 H       1  UNL11       0.0565
     29 H           3.4732   -1.1067   -1.2900 H       1  UNL11       0.0676
     30 H           2.0034   -2.5879   -2.2893 H       1  UNL11       0.2101
     31 H           1.9672    0.7440   -1.2697 H       1  UNL11       0.1052
     32 H           1.4268   -0.4127   -2.4826 H       1  UNL11       0.1052
     33 H          -4.2570   -0.4864    0.9863 H       1  UNL11       0.0624
     34 H          -5.3143   -2.6206    0.3147 H       1  UNL11       0.0618
     35 H          -4.0936   -4.2402   -1.0683 H       1  UNL11       0.0618
     36 H          -1.7778   -3.7490   -1.8084 H       1  UNL11       0.0627
     37 H          -1.9737    3.9404    2.3172 H       1  UNL11       0.0625
     38 H           0.1002    5.2805    2.1226 H       1  UNL11       0.0618
     39 H           2.0331    4.3681    0.8152 H       1  UNL11       0.0618
     40 H           1.8664    2.2233   -0.2199 H       1  UNL11       0.0626
     41 H           0.6543   -2.9073    3.9995 H       1  UNL11       0.2280
@<TRIPOS>BOND
     1     1     2    2
     2     2     3    2
     3     3     4    1
     4     4     5    1
     5     4    27    1
     6     4    28    1
     7     5     6    1
     8     5     7    1
     9     5    29    1
    10     6    30    1
    11     7     8    1
    12     7    31    1
    13     7    32    1
    14     8     9    1
    15     9    10    2
    16    10    11    1
    17    10    19    1
    18    11    12   ar
    19    12    13   ar
    20    12    33    1
    21    13    14   ar
    22    13    34    1
    23    14    15   ar
    24    14    35    1
    25    15    16   ar
    26    15    36    1
    27    16    17    1
    28    16    11   ar
    29    17    18    2
    30    17     8   am
    31    19    20    2
    32    19    21    1
    33    21    22   ar
    34    22    23   ar
    35    22    37    1
    36    23    24   ar
    37    23    38    1
    38    24    25   ar
    39    24    39    1
    40    25    26   ar
    41    25    40    1
    42    26    21   ar
    43    26     9    1
    44     1    41    1
@<TRIPOS>MOLECULE
*****
 41 44 0 0 0
SMALL
GASTEIGER

@<TRIPOS>ATOM
      1 N           1.7147   -1.1102   -3.9329 N.2     1  UNL11      -0.1276
      2 N           2.7321   -0.5326   -3.5767 N.2     1  UNL11      -0.1974
      3 N           3.4707    0.4359   -3.2970 N.2     1  UNL11      -0.1095
      4 C           3.3286    1.1906   -2.0842 C.3     1  UNL11       0.1058
      5 C           1.9183    1.2241   -1.5690 C.3     1  UNL11       0.1357
      6 O           1.0919    1.7839   -2.5187 O.3     1  UNL11      -0.3836
      7 C           1.4825   -0.2182   -1.3321 C.3     1  UNL11       0.1755
      8 N           0.1587   -0.3656   -0.8558 N.am    1  UNL11      -0.1275
      9 C          -0.5045    0.5110   -0.1061 C.2     1  UNL11       0.2235
     10 C          -1.8112    0.2635    0.3268 C.2     1  UNL11       0.1014
     11 C          -2.4319   -0.9192   -0.0304 C.ar    1  UNL11       0.0090
     12 C          -3.7261   -1.2104    0.3744 C.ar    1  UNL11      -0.0528
     13 C          -4.3045   -2.4023   -0.0059 C.ar    1  UNL11      -0.0611
     14 C          -3.6174   -3.3104   -0.7825 C.ar    1  UNL11      -0.0608
     15 C          -2.3310   -3.0279   -1.1885 C.ar    1  UNL11      -0.0442
     16 C          -1.7516   -1.8288   -0.8048 C.ar    1  UNL11       0.0971
     17 C          -0.4791   -1.5273   -1.1948 C.2     1  UNL11       0.4164
     18 O           0.1142   -2.3889   -1.9061 O.2     1  UNL11      -0.2140
     19 C          -2.3087    1.3725    1.1209 C.2     1  UNL11       0.2008
     20 O          -3.4191    1.5329    1.6828 O.2     1  UNL11      -0.2864
     21 C          -1.2138    2.3258    1.1482 C.ar    1  UNL11       0.0359
     22 C          -1.1209    3.5796    1.7619 C.ar    1  UNL11      -0.0501
     23 C           0.0340    4.3158    1.6484 C.ar    1  UNL11      -0.0610
     24 C           1.1100    3.8395    0.9370 C.ar    1  UNL11      -0.0610
     25 C           1.0264    2.5844    0.3188 C.ar    1  UNL11      -0.0476
     26 C          -0.1191    1.8374    0.4220 C.ar    1  UNL11       0.0572
     27 H           3.7050    2.2401   -2.1848 H       1  UNL11       0.0565
     28 H           3.9502    0.6941   -1.2922 H       1  UNL11       0.0565
     29 H           1.8588    1.8046   -0.6106 H       1  UNL11       0.0676
     30 H           0.1599    1.8638   -2.1799 H       1  UNL11       0.2101
     31 H           1.8262   -0.8331   -2.1497 H       1  UNL11       0.1052
     32 H           2.1734   -0.5427   -0.4479 H       1  UNL11       0.1052
     33 H          -4.2570   -0.4864    0.9863 H       1  UNL11       0.0624
     34 H          -5.3143   -2.6206    0.3147 H       1  UNL11       0.0618
     35 H          -4.0936   -4.2402   -1.0683 H       1  UNL11       0.0618
     36 H          -1.7778   -3.7490   -1.8084 H       1  UNL11       0.0627
     37 H          -1.9737    3.9404    2.3172 H       1  UNL11       0.0625
     38 H           0.1002    5.2805    2.1226 H       1  UNL11       0.0618
     39 H           2.0331    4.3681    0.8152 H       1  UNL11       0.0618
     40 H           1.8664    2.2233   -0.2199 H       1  UNL11       0.0626
     41 H           1.7374   -2.0763   -4.1212 H       1  UNL11       0.2280
@<TRIPOS>BOND
     1     1     2    2
     2     2     3    2
     3     3     4    1
     4     4     5    1
     5     4    27    1
     6     4    28    1
     7     5     6    1
     8     5     7    1
     9     5    29    1
    10     6    30    1
    11     7     8    1
    12     7    31    1
    13     7    32    1
    14     8     9    1
    15     9    10    2
    16    10    11    1
    17    10    19    1
    18    11    12   ar
    19    12    13   ar
    20    12    33    1
    21    13    14   ar
    22    13    34    1
    23    14    15   ar
    24    14    35    1
    25    15    16   ar
    26    15    36    1
    27    16    17    1
    28    16    11   ar
    29    17    18    2
    30    17     8   am
    31    19    20    2
    32    19    21    1
    33    21    22   ar
    34    22    23   ar
    35    22    37    1
    36    23    24   ar
    37    23    38    1
    38    24    25   ar
    39    24    39    1
    40    25    26   ar
    41    25    40    1
    42    26    21   ar
    43    26     9    1
    44     1    41    1
@<TRIPOS>MOLECULE
*****
 41 44 0 0 0
SMALL
GASTEIGER

@<TRIPOS>ATOM
      1 N           4.9871   -2.9948   -0.9617 N.2     1  UNL11      -0.1276
      2 N           3.8045   -2.7256   -0.8053 N.2     1  UNL11      -0.1974
      3 N           2.7387   -2.5296   -0.1827 N.2     1  UNL11      -0.1095
      4 C           2.4994   -1.3392    0.5830 C.3     1  UNL11       0.1058
      5 C           2.5414   -0.0853   -0.2424 C.3     1  UNL11       0.1357
      6 O           3.7768    0.0338   -0.8406 O.3     1  UNL11      -0.3836
      7 C           1.4825   -0.2182   -1.3321 C.3     1  UNL11       0.1755
      8 N           0.1587   -0.3656   -0.8558 N.am    1  UNL11      -0.1275
      9 C          -0.5045    0.5110   -0.1061 C.2     1  UNL11       0.2235
     10 C          -1.8112    0.2635    0.3268 C.2     1  UNL11       0.1014
     11 C          -2.4319   -0.9192   -0.0304 C.ar    1  UNL11       0.0090
     12 C          -3.7261   -1.2104    0.3744 C.ar    1  UNL11      -0.0528
     13 C          -4.3045   -2.4023   -0.0059 C.ar    1  UNL11      -0.0611
     14 C          -3.6174   -3.3104   -0.7825 C.ar    1  UNL11      -0.0608
     15 C          -2.3310   -3.0279   -1.1885 C.ar    1  UNL11      -0.0442
     16 C          -1.7516   -1.8288   -0.8048 C.ar    1  UNL11       0.0971
     17 C          -0.4791   -1.5273   -1.1948 C.2     1  UNL11       0.4164
     18 O           0.1142   -2.3889   -1.9061 O.2     1  UNL11      -0.2140
     19 C          -2.3087    1.3725    1.1209 C.2     1  UNL11       0.2008
     20 O          -3.4191    1.5329    1.6828 O.2     1  UNL11      -0.2864
     21 C          -1.2138    2.3258    1.1482 C.ar    1  UNL11       0.0359
     22 C          -1.1209    3.5796    1.7619 C.ar    1  UNL11      -0.0501
     23 C           0.0340    4.3158    1.6484 C.ar    1  UNL11      -0.0610
     24 C           1.1100    3.8395    0.9370 C.ar    1  UNL11      -0.0610
     25 C           1.0264    2.5844    0.3188 C.ar    1  UNL11      -0.0476
     26 C          -0.1191    1.8374    0.4220 C.ar    1  UNL11       0.0572
     27 H           3.2071   -1.2327    1.4439 H       1  UNL11       0.0565
     28 H           1.4656   -1.4070    1.0152 H       1  UNL11       0.0565
     29 H           2.3277    0.8155    0.3916 H       1  UNL11       0.0676
     30 H           3.8463    0.8841   -1.3525 H       1  UNL11       0.2101
     31 H           1.6899    0.4908   -2.1188 H       1  UNL11       0.1052
     32 H           1.7577   -1.2433   -1.8200 H       1  UNL11       0.1052
     33 H          -4.2570   -0.4864    0.9863 H       1  UNL11       0.0624
     34 H          -5.3143   -2.6206    0.3147 H       1  UNL11       0.0618
     35 H          -4.0936   -4.2402   -1.0683 H       1  UNL11       0.0618
     36 H          -1.7778   -3.7490   -1.8084 H       1  UNL11       0.0627
     37 H          -1.9737    3.9404    2.3172 H       1  UNL11       0.0625
     38 H           0.1002    5.2805    2.1226 H       1  UNL11       0.0618
     39 H           2.0331    4.3681    0.8152 H       1  UNL11       0.0618
     40 H           1.8664    2.2233   -0.2199 H       1  UNL11       0.0626
     41 H           5.3415   -3.1480   -1.8674 H       1  UNL11       0.2280
@<TRIPOS>BOND
     1     1     2    2
     2     2     3    2
     3     3     4    1
     4     4     5    1
     5     4    27    1
     6     4    28    1
     7     5     6    1
     8     5     7    1
     9     5    29    1
    10     6    30    1
    11     7     8    1
    12     7    31    1
    13     7    32    1
    14     8     9    1
    15     9    10    2
    16    10    11    1
    17    10    19    1
    18    11    12   ar
    19    12    13   ar
    20    12    33    1
    21    13    14   ar
    22    13    34    1
    23    14    15   ar
    24    14    35    1
    25    15    16   ar
    26    15    36    1
    27    16    17    1
    28    16    11   ar
    29    17    18    2
    30    17     8   am
    31    19    20    2
    32    19    21    1
    33    21    22   ar
    34    22    23   ar
    35    22    37    1
    36    23    24   ar
    37    23    38    1
    38    24    25   ar
    39    24    39    1
    40    25    26   ar
    41    25    40    1
    42    26    21   ar
    43    26     9    1
    44     1    41    1
@<TRIPOS>MOLECULE
*****
 41 44 0 0 0
SMALL
GASTEIGER

@<TRIPOS>ATOM
      1 N           7.1424   -1.3478   -1.4675 N.2     1  UNL11      -0.1276
      2 N           6.0072   -1.8013   -1.4346 N.2     1  UNL11      -0.1974
      3 N           4.8195   -1.9115   -1.0615 N.2     1  UNL11      -0.1095
      4 C           3.7988   -0.9793   -1.4487 C.3     1  UNL11       0.1058
      5 C           2.4515   -1.3011   -0.8687 C.3     1  UNL11       0.1357
      6 O           2.5207   -1.2712    0.5070 O.3     1  UNL11      -0.3836
      7 C           1.4825   -0.2182   -1.3321 C.3     1  UNL11       0.1755
      8 N           0.1587   -0.3656   -0.8558 N.am    1  UNL11      -0.1275
      9 C          -0.5045    0.5110   -0.1061 C.2     1  UNL11       0.2235
     10 C          -1.8112    0.2635    0.3268 C.2     1  UNL11       0.1014
     11 C          -2.4319   -0.9192   -0.0304 C.ar    1  UNL11       0.0090
     12 C          -3.7261   -1.2104    0.3744 C.ar    1  UNL11      -0.0528
     13 C          -4.3045   -2.4023   -0.0059 C.ar    1  UNL11      -0.0611
     14 C          -3.6174   -3.3104   -0.7825 C.ar    1  UNL11      -0.0608
     15 C          -2.3310   -3.0279   -1.1885 C.ar    1  UNL11      -0.0442
     16 C          -1.7516   -1.8288   -0.8048 C.ar    1  UNL11       0.0971
     17 C          -0.4791   -1.5273   -1.1948 C.2     1  UNL11       0.4164
     18 O           0.1142   -2.3889   -1.9061 O.2     1  UNL11      -0.2140
     19 C          -2.3087    1.3725    1.1209 C.2     1  UNL11       0.2008
     20 O          -3.4191    1.5329    1.6828 O.2     1  UNL11      -0.2864
     21 C          -1.2138    2.3258    1.1482 C.ar    1  UNL11       0.0359
     22 C          -1.1209    3.5796    1.7619 C.ar    1  UNL11      -0.0501
     23 C           0.0340    4.3158    1.6484 C.ar    1  UNL11      -0.0610
     24 C           1.1100    3.8395    0.9370 C.ar    1  UNL11      -0.0610
     25 C           1.0264    2.5844    0.3188 C.ar    1  UNL11      -0.0476
     26 C          -0.1191    1.8374    0.4220 C.ar    1  UNL11       0.0572
     27 H           3.7038   -0.8835   -2.5601 H       1  UNL11       0.0565
     28 H           4.0863    0.0323   -1.0561 H       1  UNL11       0.0565
     29 H           2.0978   -2.3069   -1.2187 H       1  UNL11       0.0676
     30 H           1.6515   -1.5316    0.9150 H       1  UNL11       0.2101
     31 H           1.9672    0.7440   -1.2697 H       1  UNL11       0.1052
     32 H           1.4268   -0.4127   -2.4826 H       1  UNL11       0.1052
     33 H          -4.2570   -0.4864    0.9863 H       1  UNL11       0.0624
     34 H          -5.3143   -2.6206    0.3147 H       1  UNL11       0.0618
     35 H          -4.0936   -4.2402   -1.0683 H       1  UNL11       0.0618
     36 H          -1.7778   -3.7490   -1.8084 H       1  UNL11       0.0627
     37 H          -1.9737    3.9404    2.3172 H       1  UNL11       0.0625
     38 H           0.1002    5.2805    2.1226 H       1  UNL11       0.0618
     39 H           2.0331    4.3681    0.8152 H       1  UNL11       0.0618
     40 H           1.8664    2.2233   -0.2199 H       1  UNL11       0.0626
     41 H           7.8458   -1.8175   -1.9714 H       1  UNL11       0.2280
@<TRIPOS>BOND
     1     1     2    2
     2     2     3    2
     3     3     4    1
     4     4     5    1
     5     4    27    1
     6     4    28    1
     7     5     6    1
     8     5     7    1
     9     5    29    1
    10     6    30    1
    11     7     8    1
    12     7    31    1
    13     7    32    1
    14     8     9    1
    15     9    10    2
    16    10    11    1
    17    10    19    1
    18    11    12   ar
    19    12    13   ar
    20    12    33    1
    21    13    14   ar
    22    13    34    1
    23    14    15   ar
    24    14    35    1
    25    15    16   ar
    26    15    36    1
    27    16    17    1
    28    16    11   ar
    29    17    18    2
    30    17     8   am
    31    19    20    2
    32    19    21    1
    33    21    22   ar
    34    22    23   ar
    35    22    37    1
    36    23    24   ar
    37    23    38    1
    38    24    25   ar
    39    24    39    1
    40    25    26   ar
    41    25    40    1
    42    26    21   ar
    43    26     9    1
    44     1    41    1
@<TRIPOS>MOLECULE
*****
 41 44 0 0 0
SMALL
GASTEIGER

@<TRIPOS>ATOM
      1 N          -1.8160    2.6704   -2.5241 N.2     1  UNL11      -0.1276
      2 N          -0.9672    2.6515   -1.6439 N.2     1  UNL11      -0.1974
      3 N          -0.0114    2.2069   -0.9727 N.2     1  UNL11      -0.1095
      4 C           1.3408    2.2155   -1.4547 C.3     1  UNL11       0.1058
      5 C           2.1674    1.0811   -0.9209 C.3     1  UNL11       0.1357
      6 O           2.2049    1.1432    0.4550 O.3     1  UNL11      -0.3836
      7 C           1.4825   -0.2182   -1.3321 C.3     1  UNL11       0.1755
      8 N           0.1587   -0.3656   -0.8558 N.am    1  UNL11      -0.1275
      9 C          -0.5045    0.5110   -0.1061 C.2     1  UNL11       0.2235
     10 C          -1.8112    0.2635    0.3268 C.2     1  UNL11       0.1014
     11 C          -2.4319   -0.9192   -0.0304 C.ar    1  UNL11       0.0090
     12 C          -3.7261   -1.2104    0.3744 C.ar    1  UNL11      -0.0528
     13 C          -4.3045   -2.4023   -0.0059 C.ar    1  UNL11      -0.0611
     14 C          -3.6174   -3.3104   -0.7825 C.ar    1  UNL11      -0.0608
     15 C          -2.3310   -3.0279   -1.1885 C.ar    1  UNL11      -0.0442
     16 C          -1.7516   -1.8288   -0.8048 C.ar    1  UNL11       0.0971
     17 C          -0.4791   -1.5273   -1.1948 C.2     1  UNL11       0.4164
     18 O           0.1142   -2.3889   -1.9061 O.2     1  UNL11      -0.2140
     19 C          -2.3087    1.3725    1.1209 C.2     1  UNL11       0.2008
     20 O          -3.4191    1.5329    1.6828 O.2     1  UNL11      -0.2864
     21 C          -1.2138    2.3258    1.1482 C.ar    1  UNL11       0.0359
     22 C          -1.1209    3.5796    1.7619 C.ar    1  UNL11      -0.0501
     23 C           0.0340    4.3158    1.6484 C.ar    1  UNL11      -0.0610
     24 C           1.1100    3.8395    0.9370 C.ar    1  UNL11      -0.0610
     25 C           1.0264    2.5844    0.3188 C.ar    1  UNL11      -0.0476
     26 C          -0.1191    1.8374    0.4220 C.ar    1  UNL11       0.0572
     27 H           1.8663    3.1810   -1.2423 H       1  UNL11       0.0565
     28 H           1.3118    2.0970   -2.5706 H       1  UNL11       0.0565
     29 H           3.2076    1.1152   -1.3404 H       1  UNL11       0.0676
     30 H           2.7895    0.4307    0.8298 H       1  UNL11       0.2101
     31 H           1.7019   -0.4241   -2.3685 H       1  UNL11       0.1052
     32 H           2.1131   -1.0203   -0.7634 H       1  UNL11       0.1052
     33 H          -4.2570   -0.4864    0.9863 H       1  UNL11       0.0624
     34 H          -5.3143   -2.6206    0.3147 H       1  UNL11       0.0618
     35 H          -4.0936   -4.2402   -1.0683 H       1  UNL11       0.0618
     36 H          -1.7778   -3.7490   -1.8084 H       1  UNL11       0.0627
     37 H          -1.9737    3.9404    2.3172 H       1  UNL11       0.0625
     38 H           0.1002    5.2805    2.1226 H       1  UNL11       0.0618
     39 H           2.0331    4.3681    0.8152 H       1  UNL11       0.0618
     40 H           1.8664    2.2233   -0.2199 H       1  UNL11       0.0626
     41 H          -2.5255    3.3528   -2.5092 H       1  UNL11       0.2280
@<TRIPOS>BOND
     1     1     2    2
     2     2     3    2
     3     3     4    1
     4     4     5    1
     5     4    27    1
     6     4    28    1
     7     5     6    1
     8     5     7    1
     9     5    29    1
    10     6    30    1
    11     7     8    1
    12     7    31    1
    13     7    32    1
    14     8     9    1
    15     9    10    2
    16    10    11    1
    17    10    19    1
    18    11    12   ar
    19    12    13   ar
    20    12    33    1
    21    13    14   ar
    22    13    34    1
    23    14    15   ar
    24    14    35    1
    25    15    16   ar
    26    15    36    1
    27    16    17    1
    28    16    11   ar
    29    17    18    2
    30    17     8   am
    31    19    20    2
    32    19    21    1
    33    21    22   ar
    34    22    23   ar
    35    22    37    1
    36    23    24   ar
    37    23    38    1
    38    24    25   ar
    39    24    39    1
    40    25    26   ar
    41    25    40    1
    42    26    21   ar
    43    26     9    1
    44     1    41    1
@<TRIPOS>MOLECULE
*****
 41 44 0 0 0
SMALL
GASTEIGER

@<TRIPOS>ATOM
      1 N           1.6482    4.7334   -1.0388 N.2     1  UNL11      -0.1276
      2 N           1.2484    4.0860   -1.9962 N.2     1  UNL11      -0.1974
      3 N           1.2620    3.1955   -2.8729 N.2     1  UNL11      -0.1095
      4 C           0.9802    1.8188   -2.5797 C.3     1  UNL11       0.1058
      5 C           1.9183    1.2241   -1.5690 C.3     1  UNL11       0.1357
      6 O           1.8180    1.9155   -0.3815 O.3     1  UNL11      -0.3836
      7 C           1.4825   -0.2182   -1.3321 C.3     1  UNL11       0.1755
      8 N           0.1587   -0.3656   -0.8558 N.am    1  UNL11      -0.1275
      9 C          -0.5045    0.5110   -0.1061 C.2     1  UNL11       0.2235
     10 C          -1.8112    0.2635    0.3268 C.2     1  UNL11       0.1014
     11 C          -2.4319   -0.9192   -0.0304 C.ar    1  UNL11       0.0090
     12 C          -3.7261   -1.2104    0.3744 C.ar    1  UNL11      -0.0528
     13 C          -4.3045   -2.4023   -0.0059 C.ar    1  UNL11      -0.0611
     14 C          -3.6174   -3.3104   -0.7825 C.ar    1  UNL11      -0.0608
     15 C          -2.3310   -3.0279   -1.1885 C.ar    1  UNL11      -0.0442
     16 C          -1.7516   -1.8288   -0.8048 C.ar    1  UNL11       0.0971
     17 C          -0.4791   -1.5273   -1.1948 C.2     1  UNL11       0.4164
     18 O           0.1142   -2.3889   -1.9061 O.2     1  UNL11      -0.2140
     19 C          -2.3087    1.3725    1.1209 C.2     1  UNL11       0.2008
     20 O          -3.4191    1.5329    1.6828 O.2     1  UNL11      -0.2864
     21 C          -1.2138    2.3258    1.1482 C.ar    1  UNL11       0.0359
     22 C          -1.1209    3.5796    1.7619 C.ar    1  UNL11      -0.0501
     23 C           0.0340    4.3158    1.6484 C.ar    1  UNL11      -0.0610
     24 C           1.1100    3.8395    0.9370 C.ar    1  UNL11      -0.0610
     25 C           1.0264    2.5844    0.3188 C.ar    1  UNL11      -0.0476
     26 C          -0.1191    1.8374    0.4220 C.ar    1  UNL11       0.0572
     27 H           0.9772    1.1763   -3.4966 H       1  UNL11       0.0565
     28 H          -0.0498    1.7624   -2.1369 H       1  UNL11       0.0565
     29 H           2.9753    1.2481   -1.9450 H       1  UNL11       0.0676
     30 H           2.4679    1.5719    0.2889 H       1  UNL11       0.2101
     31 H           1.8262   -0.8331   -2.1497 H       1  UNL11       0.1052
     32 H           2.1734   -0.5427   -0.4479 H       1  UNL11       0.1052
     33 H          -4.2570   -0.4864    0.9863 H       1  UNL11       0.0624
     34 H          -5.3143   -2.6206    0.3147 H       1  UNL11       0.0618
     35 H          -4.0936   -4.2402   -1.0683 H       1  UNL11       0.0618
     36 H          -1.7778   -3.7490   -1.8084 H       1  UNL11       0.0627
     37 H          -1.9737    3.9404    2.3172 H       1  UNL11       0.0625
     38 H           0.1002    5.2805    2.1226 H       1  UNL11       0.0618
     39 H           2.0331    4.3681    0.8152 H       1  UNL11       0.0618
     40 H           1.8664    2.2233   -0.2199 H       1  UNL11       0.0626
     41 H           1.2009    5.5752   -0.7925 H       1  UNL11       0.2280
@<TRIPOS>BOND
     1     1     2    2
     2     2     3    2
     3     3     4    1
     4     4     5    1
     5     4    27    1
     6     4    28    1
     7     5     6    1
     8     5     7    1
     9     5    29    1
    10     6    30    1
    11     7     8    1
    12     7    31    1
    13     7    32    1
    14     8     9    1
    15     9    10    2
    16    10    11    1
    17    10    19    1
    18    11    12   ar
    19    12    13   ar
    20    12    33    1
    21    13    14   ar
    22    13    34    1
    23    14    15   ar
    24    14    35    1
    25    15    16   ar
    26    15    36    1
    27    16    17    1
    28    16    11   ar
    29    17    18    2
    30    17     8   am
    31    19    20    2
    32    19    21    1
    33    21    22   ar
    34    22    23   ar
    35    22    37    1
    36    23    24   ar
    37    23    38    1
    38    24    25   ar
    39    24    39    1
    40    25    26   ar
    41    25    40    1
    42    26    21   ar
    43    26     9    1
    44     1    41    1
@<TRIPOS>MOLECULE
*****
 41 44 0 0 0
SMALL
GASTEIGER

@<TRIPOS>ATOM
      1 N          -0.3003    0.3151    1.4437 N.2     1  UNL11      -0.1276
      2 N           0.4938   -0.6051    1.5787 N.2     1  UNL11      -0.1974
      3 N           1.2357   -1.5487    1.2309 N.2     1  UNL11      -0.1095
      4 C           2.4994   -1.3392    0.5830 C.3     1  UNL11       0.1058
      5 C           2.5414   -0.0853   -0.2424 C.3     1  UNL11       0.1357
      6 O           3.7768    0.0338   -0.8406 O.3     1  UNL11      -0.3836
      7 C           1.4825   -0.2182   -1.3321 C.3     1  UNL11       0.1755
      8 N           0.1587   -0.3656   -0.8558 N.am    1  UNL11      -0.1275
      9 C          -0.5045    0.5110   -0.1061 C.2     1  UNL11       0.2235
     10 C          -1.8112    0.2635    0.3268 C.2     1  UNL11       0.1014
     11 C          -2.4319   -0.9192   -0.0304 C.ar    1  UNL11       0.0090
     12 C          -3.7261   -1.2104    0.3744 C.ar    1  UNL11      -0.0528
     13 C          -4.3045   -2.4023   -0.0059 C.ar    1  UNL11      -0.0611
     14 C          -3.6174   -3.3104   -0.7825 C.ar    1  UNL11      -0.0608
     15 C          -2.3310   -3.0279   -1.1885 C.ar    1  UNL11      -0.0442
     16 C          -1.7516   -1.8288   -0.8048 C.ar    1  UNL11       0.0971
     17 C          -0.4791   -1.5273   -1.1948 C.2     1  UNL11       0.4164
     18 O           0.1142   -2.3889   -1.9061 O.2     1  UNL11      -0.2140
     19 C          -2.3087    1.3725    1.1209 C.2     1  UNL11       0.2008
     20 O          -3.4191    1.5329    1.6828 O.2     1  UNL11      -0.2864
     21 C          -1.2138    2.3258    1.1482 C.ar    1  UNL11       0.0359
     22 C          -1.1209    3.5796    1.7619 C.ar    1  UNL11      -0.0501
     23 C           0.0340    4.3158    1.6484 C.ar    1  UNL11      -0.0610
     24 C           1.1100    3.8395    0.9370 C.ar    1  UNL11      -0.0610
     25 C           1.0264    2.5844    0.3188 C.ar    1  UNL11      -0.0476
     26 C          -0.1191    1.8374    0.4220 C.ar    1  UNL11       0.0572
     27 H           2.8035   -2.2066   -0.0561 H       1  UNL11       0.0565
     28 H           3.2830   -1.2283    1.3791 H       1  UNL11       0.0565
     29 H           2.3277    0.8155    0.3916 H       1  UNL11       0.0676
     30 H           3.8463    0.8841   -1.3525 H       1  UNL11       0.2101
     31 H           1.6899    0.4908   -2.1188 H       1  UNL11       0.1052
     32 H           1.7577   -1.2433   -1.8200 H       1  UNL11       0.1052
     33 H          -4.2570   -0.4864    0.9863 H       1  UNL11       0.0624
     34 H          -5.3143   -2.6206    0.3147 H       1  UNL11       0.0618
     35 H          -4.0936   -4.2402   -1.0683 H       1  UNL11       0.0618
     36 H          -1.7778   -3.7490   -1.8084 H       1  UNL11       0.0627
     37 H          -1.9737    3.9404    2.3172 H       1  UNL11       0.0625
     38 H           0.1002    5.2805    2.1226 H       1  UNL11       0.0618
     39 H           2.0331    4.3681    0.8152 H       1  UNL11       0.0618
     40 H           1.8664    2.2233   -0.2199 H       1  UNL11       0.0626
     41 H          -0.7221    0.7214    2.2351 H       1  UNL11       0.2280
@<TRIPOS>BOND
     1     1     2    2
     2     2     3    2
     3     3     4    1
     4     4     5    1
     5     4    27    1
     6     4    28    1
     7     5     6    1
     8     5     7    1
     9     5    29    1
    10     6    30    1
    11     7     8    1
    12     7    31    1
    13     7    32    1
    14     8     9    1
    15     9    10    2
    16    10    11    1
    17    10    19    1
    18    11    12   ar
    19    12    13   ar
    20    12    33    1
    21    13    14   ar
    22    13    34    1
    23    14    15   ar
    24    14    35    1
    25    15    16   ar
    26    15    36    1
    27    16    17    1
    28    16    11   ar
    29    17    18    2
    30    17     8   am
    31    19    20    2
    32    19    21    1
    33    21    22   ar
    34    22    23   ar
    35    22    37    1
    36    23    24   ar
    37    23    38    1
    38    24    25   ar
    39    24    39    1
    40    25    26   ar
    41    25    40    1
    42    26    21   ar
    43    26     9    1
    44     1    41    1
@<TRIPOS>MOLECULE
*****
 41 44 0 0 0
SMALL
GASTEIGER

@<TRIPOS>ATOM
      1 N           1.4407    2.4905   -5.3249 N.2     1  UNL11      -0.1276
      2 N           0.9109    1.3923   -5.2310 N.2     1  UNL11      -0.1974
      3 N           0.8315    0.1654   -5.0070 N.2     1  UNL11      -0.1095
      4 C           0.8295   -0.3786   -3.6786 C.3     1  UNL11       0.1058
      5 C           1.5986    0.4561   -2.6953 C.3     1  UNL11       0.1357
      6 O           1.0370    1.7117   -2.6151 O.3     1  UNL11      -0.3836
      7 C           1.4825   -0.2182   -1.3321 C.3     1  UNL11       0.1755
      8 N           0.1587   -0.3656   -0.8558 N.am    1  UNL11      -0.1275
      9 C          -0.5045    0.5110   -0.1061 C.2     1  UNL11       0.2235
     10 C          -1.8112    0.2635    0.3268 C.2     1  UNL11       0.1014
     11 C          -2.4319   -0.9192   -0.0304 C.ar    1  UNL11       0.0090
     12 C          -3.7261   -1.2104    0.3744 C.ar    1  UNL11      -0.0528
     13 C          -4.3045   -2.4023   -0.0059 C.ar    1  UNL11      -0.0611
     14 C          -3.6174   -3.3104   -0.7825 C.ar    1  UNL11      -0.0608
     15 C          -2.3310   -3.0279   -1.1885 C.ar    1  UNL11      -0.0442
     16 C          -1.7516   -1.8288   -0.8048 C.ar    1  UNL11       0.0971
     17 C          -0.4791   -1.5273   -1.1948 C.2     1  UNL11       0.4164
     18 O           0.1142   -2.3889   -1.9061 O.2     1  UNL11      -0.2140
     19 C          -2.3087    1.3725    1.1209 C.2     1  UNL11       0.2008
     20 O          -3.4191    1.5329    1.6828 O.2     1  UNL11      -0.2864
     21 C          -1.2138    2.3258    1.1482 C.ar    1  UNL11       0.0359
     22 C          -1.1209    3.5796    1.7619 C.ar    1  UNL11      -0.0501
     23 C           0.0340    4.3158    1.6484 C.ar    1  UNL11      -0.0610
     24 C           1.1100    3.8395    0.9370 C.ar    1  UNL11      -0.0610
     25 C           1.0264    2.5844    0.3188 C.ar    1  UNL11      -0.0476
     26 C          -0.1191    1.8374    0.4220 C.ar    1  UNL11       0.0572
     27 H           1.2142   -1.4294   -3.6442 H       1  UNL11       0.0565
     28 H          -0.2329   -0.4068   -3.3172 H       1  UNL11       0.0565
     29 H           2.6774    0.5308   -2.9950 H       1  UNL11       0.0676
     30 H           1.5607    2.3000   -2.0072 H       1  UNL11       0.2101
     31 H           2.1602   -1.0571   -1.2907 H       1  UNL11       0.1052
     32 H           1.9861    0.5643   -0.6260 H       1  UNL11       0.1052
     33 H          -4.2570   -0.4864    0.9863 H       1  UNL11       0.0624
     34 H          -5.3143   -2.6206    0.3147 H       1  UNL11       0.0618
     35 H          -4.0936   -4.2402   -1.0683 H       1  UNL11       0.0618
     36 H          -1.7778   -3.7490   -1.8084 H       1  UNL11       0.0627
     37 H          -1.9737    3.9404    2.3172 H       1  UNL11       0.0625
     38 H           0.1002    5.2805    2.1226 H       1  UNL11       0.0618
     39 H           2.0331    4.3681    0.8152 H       1  UNL11       0.0618
     40 H           1.8664    2.2233   -0.2199 H       1  UNL11       0.0626
     41 H           0.9543    3.2375   -5.7429 H       1  UNL11       0.2280
@<TRIPOS>BOND
     1     1     2    2
     2     2     3    2
     3     3     4    1
     4     4     5    1
     5     4    27    1
     6     4    28    1
     7     5     6    1
     8     5     7    1
     9     5    29    1
    10     6    30    1
    11     7     8    1
    12     7    31    1
    13     7    32    1
    14     8     9    1
    15     9    10    2
    16    10    11    1
    17    10    19    1
    18    11    12   ar
    19    12    13   ar
    20    12    33    1
    21    13    14   ar
    22    13    34    1
    23    14    15   ar
    24    14    35    1
    25    15    16   ar
    26    15    36    1
    27    16    17    1
    28    16    11   ar
    29    17    18    2
    30    17     8   am
    31    19    20    2
    32    19    21    1
    33    21    22   ar
    34    22    23   ar
    35    22    37    1
    36    23    24   ar
    37    23    38    1
    38    24    25   ar
    39    24    39    1
    40    25    26   ar
    41    25    40    1
    42    26    21   ar
    43    26     9    1
    44     1    41    1
@<TRIPOS>MOLECULE
*****
 41 44 0 0 0
SMALL
GASTEIGER

@<TRIPOS>ATOM
      1 N          -1.8070    1.3726   -2.4617 N.2     1  UNL11      -0.1276
      2 N          -1.2016    0.3388   -2.7079 N.2     1  UNL11      -0.1974
      3 N          -0.5448   -0.4794   -3.3868 N.2     1  UNL11      -0.1095
      4 C           0.8464   -0.2927   -3.6875 C.3     1  UNL11       0.1058
      5 C           1.7609   -0.9046   -2.6654 C.3     1  UNL11       0.1357
      6 O           3.0719   -0.6687   -3.0173 O.3     1  UNL11      -0.3836
      7 C           1.4825   -0.2182   -1.3321 C.3     1  UNL11       0.1755
      8 N           0.1587   -0.3656   -0.8558 N.am    1  UNL11      -0.1275
      9 C          -0.5045    0.5110   -0.1061 C.2     1  UNL11       0.2235
     10 C          -1.8112    0.2635    0.3268 C.2     1  UNL11       0.1014
     11 C          -2.4319   -0.9192   -0.0304 C.ar    1  UNL11       0.0090
     12 C          -3.7261   -1.2104    0.3744 C.ar    1  UNL11      -0.0528
     13 C          -4.3045   -2.4023   -0.0059 C.ar    1  UNL11      -0.0611
     14 C          -3.6174   -3.3104   -0.7825 C.ar    1  UNL11      -0.0608
     15 C          -2.3310   -3.0279   -1.1885 C.ar    1  UNL11      -0.0442
     16 C          -1.7516   -1.8288   -0.8048 C.ar    1  UNL11       0.0971
     17 C          -0.4791   -1.5273   -1.1948 C.2     1  UNL11       0.4164
     18 O           0.1142   -2.3889   -1.9061 O.2     1  UNL11      -0.2140
     19 C          -2.3087    1.3725    1.1209 C.2     1  UNL11       0.2008
     20 O          -3.4191    1.5329    1.6828 O.2     1  UNL11      -0.2864
     21 C          -1.2138    2.3258    1.1482 C.ar    1  UNL11       0.0359
     22 C          -1.1209    3.5796    1.7619 C.ar    1  UNL11      -0.0501
     23 C           0.0340    4.3158    1.6484 C.ar    1  UNL11      -0.0610
     24 C           1.1100    3.8395    0.9370 C.ar    1  UNL11      -0.0610
     25 C           1.0264    2.5844    0.3188 C.ar    1  UNL11      -0.0476
     26 C          -0.1191    1.8374    0.4220 C.ar    1  UNL11       0.0572
     27 H           1.1164    0.7859   -3.8190 H       1  UNL11       0.0565
     28 H           1.0622   -0.8056   -4.6625 H       1  UNL11       0.0565
     29 H           1.5747   -2.0074   -2.5748 H       1  UNL11       0.0676
     30 H           3.6980   -1.1089   -2.3816 H       1  UNL11       0.2101
     31 H           2.3117   -0.3898   -0.6631 H       1  UNL11       0.1052
     32 H           1.5941    0.9114   -1.6080 H       1  UNL11       0.1052
     33 H          -4.2570   -0.4864    0.9863 H       1  UNL11       0.0624
     34 H          -5.3143   -2.6206    0.3147 H       1  UNL11       0.0618
     35 H          -4.0936   -4.2402   -1.0683 H       1  UNL11       0.0618
     36 H          -1.7778   -3.7490   -1.8084 H       1  UNL11       0.0627
     37 H          -1.9737    3.9404    2.3172 H       1  UNL11       0.0625
     38 H           0.1002    5.2805    2.1226 H       1  UNL11       0.0618
     39 H           2.0331    4.3681    0.8152 H       1  UNL11       0.0618
     40 H           1.8664    2.2233   -0.2199 H       1  UNL11       0.0626
     41 H          -2.3285    1.4516   -1.6304 H       1  UNL11       0.2280
@<TRIPOS>BOND
     1     1     2    2
     2     2     3    2
     3     3     4    1
     4     4     5    1
     5     4    27    1
     6     4    28    1
     7     5     6    1
     8     5     7    1
     9     5    29    1
    10     6    30    1
    11     7     8    1
    12     7    31    1
    13     7    32    1
    14     8     9    1
    15     9    10    2
    16    10    11    1
    17    10    19    1
    18    11    12   ar
    19    12    13   ar
    20    12    33    1
    21    13    14   ar
    22    13    34    1
    23    14    15   ar
    24    14    35    1
    25    15    16   ar
    26    15    36    1
    27    16    17    1
    28    16    11   ar
    29    17    18    2
    30    17     8   am
    31    19    20    2
    32    19    21    1
    33    21    22   ar
    34    22    23   ar
    35    22    37    1
    36    23    24   ar
    37    23    38    1
    38    24    25   ar
    39    24    39    1
    40    25    26   ar
    41    25    40    1
    42    26    21   ar
    43    26     9    1
    44     1    41    1
@<TRIPOS>MOLECULE
*****
 41 44 0 0 0
SMALL
GASTEIGER

@<TRIPOS>ATOM
      1 N           3.4735    3.6822    0.6939 N.2     1  UNL11      -0.1276
      2 N           2.5124    3.7121   -0.0618 N.2     1  UNL11      -0.1974
      3 N           1.8618    3.5077   -1.1090 N.2     1  UNL11      -0.1095
      4 C           1.3408    2.2155   -1.4547 C.3     1  UNL11       0.1058
      5 C           2.1674    1.0811   -0.9209 C.3     1  UNL11       0.1357
      6 O           2.2049    1.1432    0.4550 O.3     1  UNL11      -0.3836
      7 C           1.4825   -0.2182   -1.3321 C.3     1  UNL11       0.1755
      8 N           0.1587   -0.3656   -0.8558 N.am    1  UNL11      -0.1275
      9 C          -0.5045    0.5110   -0.1061 C.2     1  UNL11       0.2235
     10 C          -1.8112    0.2635    0.3268 C.2     1  UNL11       0.1014
     11 C          -2.4319   -0.9192   -0.0304 C.ar    1  UNL11       0.0090
     12 C          -3.7261   -1.2104    0.3744 C.ar    1  UNL11      -0.0528
     13 C          -4.3045   -2.4023   -0.0059 C.ar    1  UNL11      -0.0611
     14 C          -3.6174   -3.3104   -0.7825 C.ar    1  UNL11      -0.0608
     15 C          -2.3310   -3.0279   -1.1885 C.ar    1  UNL11      -0.0442
     16 C          -1.7516   -1.8288   -0.8048 C.ar    1  UNL11       0.0971
     17 C          -0.4791   -1.5273   -1.1948 C.2     1  UNL11       0.4164
     18 O           0.1142   -2.3889   -1.9061 O.2     1  UNL11      -0.2140
     19 C          -2.3087    1.3725    1.1209 C.2     1  UNL11       0.2008
     20 O          -3.4191    1.5329    1.6828 O.2     1  UNL11      -0.2864
     21 C          -1.2138    2.3258    1.1482 C.ar    1  UNL11       0.0359
     22 C          -1.1209    3.5796    1.7619 C.ar    1  UNL11      -0.0501
     23 C           0.0340    4.3158    1.6484 C.ar    1  UNL11      -0.0610
     24 C           1.1100    3.8395    0.9370 C.ar    1  UNL11      -0.0610
     25 C           1.0264    2.5844    0.3188 C.ar    1  UNL11      -0.0476
     26 C          -0.1191    1.8374    0.4220 C.ar    1  UNL11       0.0572
     27 H           1.2132    2.0853   -2.5593 H       1  UNL11       0.0565
     28 H           0.3220    2.1179   -0.9936 H       1  UNL11       0.0565
     29 H           3.2076    1.1152   -1.3404 H       1  UNL11       0.0676
     30 H           2.7895    0.4307    0.8298 H       1  UNL11       0.2101
     31 H           1.7019   -0.4241   -2.3685 H       1  UNL11       0.1052
     32 H           2.1131   -1.0203   -0.7634 H       1  UNL11       0.1052
     33 H          -4.2570   -0.4864    0.9863 H       1  UNL11       0.0624
     34 H          -5.3143   -2.6206    0.3147 H       1  UNL11       0.0618
     35 H          -4.0936   -4.2402   -1.0683 H       1  UNL11       0.0618
     36 H          -1.7778   -3.7490   -1.8084 H       1  UNL11       0.0627
     37 H          -1.9737    3.9404    2.3172 H       1  UNL11       0.0625
     38 H           0.1002    5.2805    2.1226 H       1  UNL11       0.0618
     39 H           2.0331    4.3681    0.8152 H       1  UNL11       0.0618
     40 H           1.8664    2.2233   -0.2199 H       1  UNL11       0.0626
     41 H           3.4618    4.2076    1.5263 H       1  UNL11       0.2280
@<TRIPOS>BOND
     1     1     2    2
     2     2     3    2
     3     3     4    1
     4     4     5    1
     5     4    27    1
     6     4    28    1
     7     5     6    1
     8     5     7    1
     9     5    29    1
    10     6    30    1
    11     7     8    1
    12     7    31    1
    13     7    32    1
    14     8     9    1
    15     9    10    2
    16    10    11    1
    17    10    19    1
    18    11    12   ar
    19    12    13   ar
    20    12    33    1
    21    13    14   ar
    22    13    34    1
    23    14    15   ar
    24    14    35    1
    25    15    16   ar
    26    15    36    1
    27    16    17    1
    28    16    11   ar
    29    17    18    2
    30    17     8   am
    31    19    20    2
    32    19    21    1
    33    21    22   ar
    34    22    23   ar
    35    22    37    1
    36    23    24   ar
    37    23    38    1
    38    24    25   ar
    39    24    39    1
    40    25    26   ar
    41    25    40    1
    42    26    21   ar
    43    26     9    1
    44     1    41    1
@<TRIPOS>MOLECULE
*****
 41 44 0 0 0
SMALL
GASTEIGER

@<TRIPOS>ATOM
      1 N           3.6293    3.7046   -2.5286 N.2     1  UNL11      -0.1276
      2 N           2.5599    3.4098   -2.0137 N.2     1  UNL11      -0.1974
      3 N           1.6609    2.6650   -1.5677 N.2     1  UNL11      -0.1095
      4 C           1.7783    1.9795   -0.3119 C.3     1  UNL11       0.1058
      5 C           2.3935    0.6153   -0.4367 C.3     1  UNL11       0.1357
      6 O           2.4557    0.0204    0.8045 O.3     1  UNL11      -0.3836
      7 C           1.4825   -0.2182   -1.3321 C.3     1  UNL11       0.1755
      8 N           0.1587   -0.3656   -0.8558 N.am    1  UNL11      -0.1275
      9 C          -0.5045    0.5110   -0.1061 C.2     1  UNL11       0.2235
     10 C          -1.8112    0.2635    0.3268 C.2     1  UNL11       0.1014
     11 C          -2.4319   -0.9192   -0.0304 C.ar    1  UNL11       0.0090
     12 C          -3.7261   -1.2104    0.3744 C.ar    1  UNL11      -0.0528
     13 C          -4.3045   -2.4023   -0.0059 C.ar    1  UNL11      -0.0611
     14 C          -3.6174   -3.3104   -0.7825 C.ar    1  UNL11      -0.0608
     15 C          -2.3310   -3.0279   -1.1885 C.ar    1  UNL11      -0.0442
     16 C          -1.7516   -1.8288   -0.8048 C.ar    1  UNL11       0.0971
     17 C          -0.4791   -1.5273   -1.1948 C.2     1  UNL11       0.4164
     18 O           0.1142   -2.3889   -1.9061 O.2     1  UNL11      -0.2140
     19 C          -2.3087    1.3725    1.1209 C.2     1  UNL11       0.2008
     20 O          -3.4191    1.5329    1.6828 O.2     1  UNL11      -0.2864
     21 C          -1.2138    2.3258    1.1482 C.ar    1  UNL11       0.0359
     22 C          -1.1209    3.5796    1.7619 C.ar    1  UNL11      -0.0501
     23 C           0.0340    4.3158    1.6484 C.ar    1  UNL11      -0.0610
     24 C           1.1100    3.8395    0.9370 C.ar    1  UNL11      -0.0610
     25 C           1.0264    2.5844    0.3188 C.ar    1  UNL11      -0.0476
     26 C          -0.1191    1.8374    0.4220 C.ar    1  UNL11       0.0572
     27 H           0.7981    1.8899    0.2217 H       1  UNL11       0.0565
     28 H           2.4574    2.5810    0.3492 H       1  UNL11       0.0565
     29 H           3.4186    0.6811   -0.8884 H       1  UNL11       0.0676
     30 H           2.9069   -0.8650    0.7550 H       1  UNL11       0.2101
     31 H           1.6508    0.0533   -2.3630 H       1  UNL11       0.1052
     32 H           1.9648   -1.2793   -1.2555 H       1  UNL11       0.1052
     33 H          -4.2570   -0.4864    0.9863 H       1  UNL11       0.0624
     34 H          -5.3143   -2.6206    0.3147 H       1  UNL11       0.0618
     35 H          -4.0936   -4.2402   -1.0683 H       1  UNL11       0.0618
     36 H          -1.7778   -3.7490   -1.8084 H       1  UNL11       0.0627
     37 H          -1.9737    3.9404    2.3172 H       1  UNL11       0.0625
     38 H           0.1002    5.2805    2.1226 H       1  UNL11       0.0618
     39 H           2.0331    4.3681    0.8152 H       1  UNL11       0.0618
     40 H           1.8664    2.2233   -0.2199 H       1  UNL11       0.0626
     41 H           3.8042    4.6339   -2.8026 H       1  UNL11       0.2280
@<TRIPOS>BOND
     1     1     2    2
     2     2     3    2
     3     3     4    1
     4     4     5    1
     5     4    27    1
     6     4    28    1
     7     5     6    1
     8     5     7    1
     9     5    29    1
    10     6    30    1
    11     7     8    1
    12     7    31    1
    13     7    32    1
    14     8     9    1
    15     9    10    2
    16    10    11    1
    17    10    19    1
    18    11    12   ar
    19    12    13   ar
    20    12    33    1
    21    13    14   ar
    22    13    34    1
    23    14    15   ar
    24    14    35    1
    25    15    16   ar
    26    15    36    1
    27    16    17    1
    28    16    11   ar
    29    17    18    2
    30    17     8   am
    31    19    20    2
    32    19    21    1
    33    21    22   ar
    34    22    23   ar
    35    22    37    1
    36    23    24   ar
    37    23    38    1
    38    24    25   ar
    39    24    39    1
    40    25    26   ar
    41    25    40    1
    42    26    21   ar
    43    26     9    1
    44     1    41    1
@<TRIPOS>MOLECULE
*****
 41 44 0 0 0
SMALL
GASTEIGER

@<TRIPOS>ATOM
      1 N           5.0866   -3.0484   -0.6772 N.2     1  UNL11      -0.1276
      2 N           4.8816   -2.0162   -1.3003 N.2     1  UNL11      -0.1974
      3 N           4.2302   -1.0448   -1.7406 N.2     1  UNL11      -0.1095
      4 C           3.8704    0.0784   -0.9223 C.3     1  UNL11       0.1058
      5 C           2.5414   -0.0853   -0.2424 C.3     1  UNL11       0.1357
      6 O           2.2638    1.0368    0.5073 O.3     1  UNL11      -0.3836
      7 C           1.4825   -0.2182   -1.3321 C.3     1  UNL11       0.1755
      8 N           0.1587   -0.3656   -0.8558 N.am    1  UNL11      -0.1275
      9 C          -0.5045    0.5110   -0.1061 C.2     1  UNL11       0.2235
     10 C          -1.8112    0.2635    0.3268 C.2     1  UNL11       0.1014
     11 C          -2.4319   -0.9192   -0.0304 C.ar    1  UNL11       0.0090
     12 C          -3.7261   -1.2104    0.3744 C.ar    1  UNL11      -0.0528
     13 C          -4.3045   -2.4023   -0.0059 C.ar    1  UNL11      -0.0611
     14 C          -3.6174   -3.3104   -0.7825 C.ar    1  UNL11      -0.0608
     15 C          -2.3310   -3.0279   -1.1885 C.ar    1  UNL11      -0.0442
     16 C          -1.7516   -1.8288   -0.8048 C.ar    1  UNL11       0.0971
     17 C          -0.4791   -1.5273   -1.1948 C.2     1  UNL11       0.4164
     18 O           0.1142   -2.3889   -1.9061 O.2     1  UNL11      -0.2140
     19 C          -2.3087    1.3725    1.1209 C.2     1  UNL11       0.2008
     20 O          -3.4191    1.5329    1.6828 O.2     1  UNL11      -0.2864
     21 C          -1.2138    2.3258    1.1482 C.ar    1  UNL11       0.0359
     22 C          -1.1209    3.5796    1.7619 C.ar    1  UNL11      -0.0501
     23 C           0.0340    4.3158    1.6484 C.ar    1  UNL11      -0.0610
     24 C           1.1100    3.8395    0.9370 C.ar    1  UNL11      -0.0610
     25 C           1.0264    2.5844    0.3188 C.ar    1  UNL11      -0.0476
     26 C          -0.1191    1.8374    0.4220 C.ar    1  UNL11       0.0572
     27 H           3.8725    1.0426   -1.4914 H       1  UNL11       0.0565
     28 H           4.6391    0.1759   -0.1100 H       1  UNL11       0.0565
     29 H           2.5377   -0.9990    0.4088 H       1  UNL11       0.0676
     30 H           1.4109    0.9306    1.0085 H       1  UNL11       0.2101
     31 H           1.6899    0.4908   -2.1188 H       1  UNL11       0.1052
     32 H           1.7577   -1.2433   -1.8200 H       1  UNL11       0.1052
     33 H          -4.2570   -0.4864    0.9863 H       1  UNL11       0.0624
     34 H          -5.3143   -2.6206    0.3147 H       1  UNL11       0.0618
     35 H          -4.0936   -4.2402   -1.0683 H       1  UNL11       0.0618
     36 H          -1.7778   -3.7490   -1.8084 H       1  UNL11       0.0627
     37 H          -1.9737    3.9404    2.3172 H       1  UNL11       0.0625
     38 H           0.1002    5.2805    2.1226 H       1  UNL11       0.0618
     39 H           2.0331    4.3681    0.8152 H       1  UNL11       0.0618
     40 H           1.8664    2.2233   -0.2199 H       1  UNL11       0.0626
     41 H           5.9295   -3.5410   -0.8044 H       1  UNL11       0.2280
@<TRIPOS>BOND
     1     1     2    2
     2     2     3    2
     3     3     4    1
     4     4     5    1
     5     4    27    1
     6     4    28    1
     7     5     6    1
     8     5     7    1
     9     5    29    1
    10     6    30    1
    11     7     8    1
    12     7    31    1
    13     7    32    1
    14     8     9    1
    15     9    10    2
    16    10    11    1
    17    10    19    1
    18    11    12   ar
    19    12    13   ar
    20    12    33    1
    21    13    14   ar
    22    13    34    1
    23    14    15   ar
    24    14    35    1
    25    15    16   ar
    26    15    36    1
    27    16    17    1
    28    16    11   ar
    29    17    18    2
    30    17     8   am
    31    19    20    2
    32    19    21    1
    33    21    22   ar
    34    22    23   ar
    35    22    37    1
    36    23    24   ar
    37    23    38    1
    38    24    25   ar
    39    24    39    1
    40    25    26   ar
    41    25    40    1
    42    26    21   ar
    43    26     9    1
    44     1    41    1
@<TRIPOS>MOLECULE
*****
 41 44 0 0 0
SMALL
GASTEIGER

@<TRIPOS>ATOM
      1 N           3.8512    0.8951    3.8098 N.2     1  UNL11      -0.1276
      2 N           3.8460    0.2420    2.7758 N.2     1  UNL11      -0.1974
      3 N           3.3870   -0.5076    1.8874 N.2     1  UNL11      -0.1095
      4 C           2.4428   -0.0537    0.9059 C.3     1  UNL11       0.1058
      5 C           2.5593   -0.7748   -0.4062 C.3     1  UNL11       0.1357
      6 O           2.3262   -2.1195   -0.2176 O.3     1  UNL11      -0.3836
      7 C           1.4825   -0.2182   -1.3321 C.3     1  UNL11       0.1755
      8 N           0.1587   -0.3656   -0.8558 N.am    1  UNL11      -0.1275
      9 C          -0.5045    0.5110   -0.1061 C.2     1  UNL11       0.2235
     10 C          -1.8112    0.2635    0.3268 C.2     1  UNL11       0.1014
     11 C          -2.4319   -0.9192   -0.0304 C.ar    1  UNL11       0.0090
     12 C          -3.7261   -1.2104    0.3744 C.ar    1  UNL11      -0.0528
     13 C          -4.3045   -2.4023   -0.0059 C.ar    1  UNL11      -0.0611
     14 C          -3.6174   -3.3104   -0.7825 C.ar    1  UNL11      -0.0608
     15 C          -2.3310   -3.0279   -1.1885 C.ar    1  UNL11      -0.0442
     16 C          -1.7516   -1.8288   -0.8048 C.ar    1  UNL11       0.0971
     17 C          -0.4791   -1.5273   -1.1948 C.2     1  UNL11       0.4164
     18 O           0.1142   -2.3889   -1.9061 O.2     1  UNL11      -0.2140
     19 C          -2.3087    1.3725    1.1209 C.2     1  UNL11       0.2008
     20 O          -3.4191    1.5329    1.6828 O.2     1  UNL11      -0.2864
     21 C          -1.2138    2.3258    1.1482 C.ar    1  UNL11       0.0359
     22 C          -1.1209    3.5796    1.7619 C.ar    1  UNL11      -0.0501
     23 C           0.0340    4.3158    1.6484 C.ar    1  UNL11      -0.0610
     24 C           1.1100    3.8395    0.9370 C.ar    1  UNL11      -0.0610
     25 C           1.0264    2.5844    0.3188 C.ar    1  UNL11      -0.0476
     26 C          -0.1191    1.8374    0.4220 C.ar    1  UNL11       0.0572
     27 H           2.5097    1.0488    0.7232 H       1  UNL11       0.0565
     28 H           1.4108   -0.2589    1.2969 H       1  UNL11       0.0565
     29 H           3.5735   -0.6154   -0.8590 H       1  UNL11       0.0676
     30 H           2.4482   -2.6264   -1.0650 H       1  UNL11       0.2101
     31 H           1.8056    0.7349   -1.7218 H       1  UNL11       0.1052
     32 H           1.5644   -0.9248   -2.2587 H       1  UNL11       0.1052
     33 H          -4.2570   -0.4864    0.9863 H       1  UNL11       0.0624
     34 H          -5.3143   -2.6206    0.3147 H       1  UNL11       0.0618
     35 H          -4.0936   -4.2402   -1.0683 H       1  UNL11       0.0618
     36 H          -1.7778   -3.7490   -1.8084 H       1  UNL11       0.0627
     37 H          -1.9737    3.9404    2.3172 H       1  UNL11       0.0625
     38 H           0.1002    5.2805    2.1226 H       1  UNL11       0.0618
     39 H           2.0331    4.3681    0.8152 H       1  UNL11       0.0618
     40 H           1.8664    2.2233   -0.2199 H       1  UNL11       0.0626
     41 H           4.6950    1.2708    4.1505 H       1  UNL11       0.2280
@<TRIPOS>BOND
     1     1     2    2
     2     2     3    2
     3     3     4    1
     4     4     5    1
     5     4    27    1
     6     4    28    1
     7     5     6    1
     8     5     7    1
     9     5    29    1
    10     6    30    1
    11     7     8    1
    12     7    31    1
    13     7    32    1
    14     8     9    1
    15     9    10    2
    16    10    11    1
    17    10    19    1
    18    11    12   ar
    19    12    13   ar
    20    12    33    1
    21    13    14   ar
    22    13    34    1
    23    14    15   ar
    24    14    35    1
    25    15    16   ar
    26    15    36    1
    27    16    17    1
    28    16    11   ar
    29    17    18    2
    30    17     8   am
    31    19    20    2
    32    19    21    1
    33    21    22   ar
    34    22    23   ar
    35    22    37    1
    36    23    24   ar
    37    23    38    1
    38    24    25   ar
    39    24    39    1
    40    25    26   ar
    41    25    40    1
    42    26    21   ar
    43    26     9    1
    44     1    41    1
@<TRIPOS>MOLECULE
*****
 41 44 0 0 0
SMALL
GASTEIGER

@<TRIPOS>ATOM
      1 N           0.0267    1.7724   -6.5482 N.2     1  UNL11      -0.1276
      2 N           0.6766    1.8996   -5.5200 N.2     1  UNL11      -0.1974
      3 N           0.8835    2.0077   -4.2923 N.2     1  UNL11      -0.1095
      4 C           0.7909    0.8931   -3.3924 C.3     1  UNL11       0.1058
      5 C           1.7114    1.0069   -2.2113 C.3     1  UNL11       0.1357
      6 O           1.3962    2.1351   -1.4859 O.3     1  UNL11      -0.3836
      7 C           1.4825   -0.2182   -1.3321 C.3     1  UNL11       0.1755
      8 N           0.1587   -0.3656   -0.8558 N.am    1  UNL11      -0.1275
      9 C          -0.5045    0.5110   -0.1061 C.2     1  UNL11       0.2235
     10 C          -1.8112    0.2635    0.3268 C.2     1  UNL11       0.1014
     11 C          -2.4319   -0.9192   -0.0304 C.ar    1  UNL11       0.0090
     12 C          -3.7261   -1.2104    0.3744 C.ar    1  UNL11      -0.0528
     13 C          -4.3045   -2.4023   -0.0059 C.ar    1  UNL11      -0.0611
     14 C          -3.6174   -3.3104   -0.7825 C.ar    1  UNL11      -0.0608
     15 C          -2.3310   -3.0279   -1.1885 C.ar    1  UNL11      -0.0442
     16 C          -1.7516   -1.8288   -0.8048 C.ar    1  UNL11       0.0971
     17 C          -0.4791   -1.5273   -1.1948 C.2     1  UNL11       0.4164
     18 O           0.1142   -2.3889   -1.9061 O.2     1  UNL11      -0.2140
     19 C          -2.3087    1.3725    1.1209 C.2     1  UNL11       0.2008
     20 O          -3.4191    1.5329    1.6828 O.2     1  UNL11      -0.2864
     21 C          -1.2138    2.3258    1.1482 C.ar    1  UNL11       0.0359
     22 C          -1.1209    3.5796    1.7619 C.ar    1  UNL11      -0.0501
     23 C           0.0340    4.3158    1.6484 C.ar    1  UNL11      -0.0610
     24 C           1.1100    3.8395    0.9370 C.ar    1  UNL11      -0.0610
     25 C           1.0264    2.5844    0.3188 C.ar    1  UNL11      -0.0476
     26 C          -0.1191    1.8374    0.4220 C.ar    1  UNL11       0.0572
     27 H           0.9718   -0.0869   -3.9025 H       1  UNL11       0.0565
     28 H          -0.2548    0.8623   -2.9853 H       1  UNL11       0.0565
     29 H           2.7824    1.0450   -2.5440 H       1  UNL11       0.0676
     30 H           2.0261    2.2597   -0.7260 H       1  UNL11       0.2101
     31 H           1.9911   -1.0666   -1.7638 H       1  UNL11       0.1052
     32 H           2.1300    0.0284   -0.3917 H       1  UNL11       0.1052
     33 H          -4.2570   -0.4864    0.9863 H       1  UNL11       0.0624
     34 H          -5.3143   -2.6206    0.3147 H       1  UNL11       0.0618
     35 H          -4.0936   -4.2402   -1.0683 H       1  UNL11       0.0618
     36 H          -1.7778   -3.7490   -1.8084 H       1  UNL11       0.0627
     37 H          -1.9737    3.9404    2.3172 H       1  UNL11       0.0625
     38 H           0.1002    5.2805    2.1226 H       1  UNL11       0.0618
     39 H           2.0331    4.3681    0.8152 H       1  UNL11       0.0618
     40 H           1.8664    2.2233   -0.2199 H       1  UNL11       0.0626
     41 H           0.4617    1.8916   -7.4233 H       1  UNL11       0.2280
@<TRIPOS>BOND
     1     1     2    2
     2     2     3    2
     3     3     4    1
     4     4     5    1
     5     4    27    1
     6     4    28    1
     7     5     6    1
     8     5     7    1
     9     5    29    1
    10     6    30    1
    11     7     8    1
    12     7    31    1
    13     7    32    1
    14     8     9    1
    15     9    10    2
    16    10    11    1
    17    10    19    1
    18    11    12   ar
    19    12    13   ar
    20    12    33    1
    21    13    14   ar
    22    13    34    1
    23    14    15   ar
    24    14    35    1
    25    15    16   ar
    26    15    36    1
    27    16    17    1
    28    16    11   ar
    29    17    18    2
    30    17     8   am
    31    19    20    2
    32    19    21    1
    33    21    22   ar
    34    22    23   ar
    35    22    37    1
    36    23    24   ar
    37    23    38    1
    38    24    25   ar
    39    24    39    1
    40    25    26   ar
    41    25    40    1
    42    26    21   ar
    43    26     9    1
    44     1    41    1
@<TRIPOS>MOLECULE
*****
 41 44 0 0 0
SMALL
GASTEIGER

@<TRIPOS>ATOM
      1 N           0.3537    4.1771   -4.8953 N.2     1  UNL11      -0.1276
      2 N           1.0264    3.7072   -3.9885 N.2     1  UNL11      -0.1974
      3 N           1.2620    3.1955   -2.8729 N.2     1  UNL11      -0.1095
      4 C           0.9802    1.8188   -2.5797 C.3     1  UNL11       0.1058
      5 C           1.9183    1.2241   -1.5690 C.3     1  UNL11       0.1357
      6 O           1.8180    1.9155   -0.3815 O.3     1  UNL11      -0.3836
      7 C           1.4825   -0.2182   -1.3321 C.3     1  UNL11       0.1755
      8 N           0.1587   -0.3656   -0.8558 N.am    1  UNL11      -0.1275
      9 C          -0.5045    0.5110   -0.1061 C.2     1  UNL11       0.2235
     10 C          -1.8112    0.2635    0.3268 C.2     1  UNL11       0.1014
     11 C          -2.4319   -0.9192   -0.0304 C.ar    1  UNL11       0.0090
     12 C          -3.7261   -1.2104    0.3744 C.ar    1  UNL11      -0.0528
     13 C          -4.3045   -2.4023   -0.0059 C.ar    1  UNL11      -0.0611
     14 C          -3.6174   -3.3104   -0.7825 C.ar    1  UNL11      -0.0608
     15 C          -2.3310   -3.0279   -1.1885 C.ar    1  UNL11      -0.0442
     16 C          -1.7516   -1.8288   -0.8048 C.ar    1  UNL11       0.0971
     17 C          -0.4791   -1.5273   -1.1948 C.2     1  UNL11       0.4164
     18 O           0.1142   -2.3889   -1.9061 O.2     1  UNL11      -0.2140
     19 C          -2.3087    1.3725    1.1209 C.2     1  UNL11       0.2008
     20 O          -3.4191    1.5329    1.6828 O.2     1  UNL11      -0.2864
     21 C          -1.2138    2.3258    1.1482 C.ar    1  UNL11       0.0359
     22 C          -1.1209    3.5796    1.7619 C.ar    1  UNL11      -0.0501
     23 C           0.0340    4.3158    1.6484 C.ar    1  UNL11      -0.0610
     24 C           1.1100    3.8395    0.9370 C.ar    1  UNL11      -0.0610
     25 C           1.0264    2.5844    0.3188 C.ar    1  UNL11      -0.0476
     26 C          -0.1191    1.8374    0.4220 C.ar    1  UNL11       0.0572
     27 H           0.9772    1.1763   -3.4966 H       1  UNL11       0.0565
     28 H          -0.0498    1.7624   -2.1369 H       1  UNL11       0.0565
     29 H           2.9753    1.2481   -1.9450 H       1  UNL11       0.0676
     30 H           2.4679    1.5719    0.2889 H       1  UNL11       0.2101
     31 H           1.8262   -0.8331   -2.1497 H       1  UNL11       0.1052
     32 H           2.1734   -0.5427   -0.4479 H       1  UNL11       0.1052
     33 H          -4.2570   -0.4864    0.9863 H       1  UNL11       0.0624
     34 H          -5.3143   -2.6206    0.3147 H       1  UNL11       0.0618
     35 H          -4.0936   -4.2402   -1.0683 H       1  UNL11       0.0618
     36 H          -1.7778   -3.7490   -1.8084 H       1  UNL11       0.0627
     37 H          -1.9737    3.9404    2.3172 H       1  UNL11       0.0625
     38 H           0.1002    5.2805    2.1226 H       1  UNL11       0.0618
     39 H           2.0331    4.3681    0.8152 H       1  UNL11       0.0618
     40 H           1.8664    2.2233   -0.2199 H       1  UNL11       0.0626
     41 H           0.7939    4.6230   -5.6546 H       1  UNL11       0.2280
@<TRIPOS>BOND
     1     1     2    2
     2     2     3    2
     3     3     4    1
     4     4     5    1
     5     4    27    1
     6     4    28    1
     7     5     6    1
     8     5     7    1
     9     5    29    1
    10     6    30    1
    11     7     8    1
    12     7    31    1
    13     7    32    1
    14     8     9    1
    15     9    10    2
    16    10    11    1
    17    10    19    1
    18    11    12   ar
    19    12    13   ar
    20    12    33    1
    21    13    14   ar
    22    13    34    1
    23    14    15   ar
    24    14    35    1
    25    15    16   ar
    26    15    36    1
    27    16    17    1
    28    16    11   ar
    29    17    18    2
    30    17     8   am
    31    19    20    2
    32    19    21    1
    33    21    22   ar
    34    22    23   ar
    35    22    37    1
    36    23    24   ar
    37    23    38    1
    38    24    25   ar
    39    24    39    1
    40    25    26   ar
    41    25    40    1
    42    26    21   ar
    43    26     9    1
    44     1    41    1
@<TRIPOS>MOLECULE
*****
 41 44 0 0 0
SMALL
GASTEIGER

@<TRIPOS>ATOM
      1 N           1.4464    4.3152   -4.0808 N.2     1  UNL11      -0.1276
      2 N           1.1079    3.2661   -3.5511 N.2     1  UNL11      -0.1974
      3 N           1.2365    2.2157   -2.8865 N.2     1  UNL11      -0.1095
      4 C           1.3408    2.2155   -1.4547 C.3     1  UNL11       0.1058
      5 C           2.1674    1.0811   -0.9209 C.3     1  UNL11       0.1357
      6 O           2.2049    1.1432    0.4550 O.3     1  UNL11      -0.3836
      7 C           1.4825   -0.2182   -1.3321 C.3     1  UNL11       0.1755
      8 N           0.1587   -0.3656   -0.8558 N.am    1  UNL11      -0.1275
      9 C          -0.5045    0.5110   -0.1061 C.2     1  UNL11       0.2235
     10 C          -1.8112    0.2635    0.3268 C.2     1  UNL11       0.1014
     11 C          -2.4319   -0.9192   -0.0304 C.ar    1  UNL11       0.0090
     12 C          -3.7261   -1.2104    0.3744 C.ar    1  UNL11      -0.0528
     13 C          -4.3045   -2.4023   -0.0059 C.ar    1  UNL11      -0.0611
     14 C          -3.6174   -3.3104   -0.7825 C.ar    1  UNL11      -0.0608
     15 C          -2.3310   -3.0279   -1.1885 C.ar    1  UNL11      -0.0442
     16 C          -1.7516   -1.8288   -0.8048 C.ar    1  UNL11       0.0971
     17 C          -0.4791   -1.5273   -1.1948 C.2     1  UNL11       0.4164
     18 O           0.1142   -2.3889   -1.9061 O.2     1  UNL11      -0.2140
     19 C          -2.3087    1.3725    1.1209 C.2     1  UNL11       0.2008
     20 O          -3.4191    1.5329    1.6828 O.2     1  UNL11      -0.2864
     21 C          -1.2138    2.3258    1.1482 C.ar    1  UNL11       0.0359
     22 C          -1.1209    3.5796    1.7619 C.ar    1  UNL11      -0.0501
     23 C           0.0340    4.3158    1.6484 C.ar    1  UNL11      -0.0610
     24 C           1.1100    3.8395    0.9370 C.ar    1  UNL11      -0.0610
     25 C           1.0264    2.5844    0.3188 C.ar    1  UNL11      -0.0476
     26 C          -0.1191    1.8374    0.4220 C.ar    1  UNL11       0.0572
     27 H           0.3409    2.2064   -0.9512 H       1  UNL11       0.0565
     28 H           1.8550    3.1639   -1.1445 H       1  UNL11       0.0565
     29 H           3.2076    1.1152   -1.3404 H       1  UNL11       0.0676
     30 H           2.7895    0.4307    0.8298 H       1  UNL11       0.2101
     31 H           1.7019   -0.4241   -2.3685 H       1  UNL11       0.1052
     32 H           2.1131   -1.0203   -0.7634 H       1  UNL11       0.1052
     33 H          -4.2570   -0.4864    0.9863 H       1  UNL11       0.0624
     34 H          -5.3143   -2.6206    0.3147 H       1  UNL11       0.0618
     35 H          -4.0936   -4.2402   -1.0683 H       1  UNL11       0.0618
     36 H          -1.7778   -3.7490   -1.8084 H       1  UNL11       0.0627
     37 H          -1.9737    3.9404    2.3172 H       1  UNL11       0.0625
     38 H           0.1002    5.2805    2.1226 H       1  UNL11       0.0618
     39 H           2.0331    4.3681    0.8152 H       1  UNL11       0.0618
     40 H           1.8664    2.2233   -0.2199 H       1  UNL11       0.0626
     41 H           0.8376    4.7691   -4.7074 H       1  UNL11       0.2280
@<TRIPOS>BOND
     1     1     2    2
     2     2     3    2
     3     3     4    1
     4     4     5    1
     5     4    27    1
     6     4    28    1
     7     5     6    1
     8     5     7    1
     9     5    29    1
    10     6    30    1
    11     7     8    1
    12     7    31    1
    13     7    32    1
    14     8     9    1
    15     9    10    2
    16    10    11    1
    17    10    19    1
    18    11    12   ar
    19    12    13   ar
    20    12    33    1
    21    13    14   ar
    22    13    34    1
    23    14    15   ar
    24    14    35    1
    25    15    16   ar
    26    15    36    1
    27    16    17    1
    28    16    11   ar
    29    17    18    2
    30    17     8   am
    31    19    20    2
    32    19    21    1
    33    21    22   ar
    34    22    23   ar
    35    22    37    1
    36    23    24   ar
    37    23    38    1
    38    24    25   ar
    39    24    39    1
    40    25    26   ar
    41    25    40    1
    42    26    21   ar
    43    26     9    1
    44     1    41    1
@<TRIPOS>MOLECULE
*****
 41 44 0 0 0
SMALL
GASTEIGER

@<TRIPOS>ATOM
      1 N           1.0048    2.4619   -5.8815 N.2     1  UNL11      -0.1276
      2 N           0.7840    1.7308   -4.9263 N.2     1  UNL11      -0.1974
      3 N           1.0104    1.1440   -3.8464 N.2     1  UNL11      -0.1095
      4 C           0.9802    1.8188   -2.5797 C.3     1  UNL11       0.1058
      5 C           1.9183    1.2241   -1.5690 C.3     1  UNL11       0.1357
      6 O           1.8180    1.9155   -0.3815 O.3     1  UNL11      -0.3836
      7 C           1.4825   -0.2182   -1.3321 C.3     1  UNL11       0.1755
      8 N           0.1587   -0.3656   -0.8558 N.am    1  UNL11      -0.1275
      9 C          -0.5045    0.5110   -0.1061 C.2     1  UNL11       0.2235
     10 C          -1.8112    0.2635    0.3268 C.2     1  UNL11       0.1014
     11 C          -2.4319   -0.9192   -0.0304 C.ar    1  UNL11       0.0090
     12 C          -3.7261   -1.2104    0.3744 C.ar    1  UNL11      -0.0528
     13 C          -4.3045   -2.4023   -0.0059 C.ar    1  UNL11      -0.0611
     14 C          -3.6174   -3.3104   -0.7825 C.ar    1  UNL11      -0.0608
     15 C          -2.3310   -3.0279   -1.1885 C.ar    1  UNL11      -0.0442
     16 C          -1.7516   -1.8288   -0.8048 C.ar    1  UNL11       0.0971
     17 C          -0.4791   -1.5273   -1.1948 C.2     1  UNL11       0.4164
     18 O           0.1142   -2.3889   -1.9061 O.2     1  UNL11      -0.2140
     19 C          -2.3087    1.3725    1.1209 C.2     1  UNL11       0.2008
     20 O          -3.4191    1.5329    1.6828 O.2     1  UNL11      -0.2864
     21 C          -1.2138    2.3258    1.1482 C.ar    1  UNL11       0.0359
     22 C          -1.1209    3.5796    1.7619 C.ar    1  UNL11      -0.0501
     23 C           0.0340    4.3158    1.6484 C.ar    1  UNL11      -0.0610
     24 C           1.1100    3.8395    0.9370 C.ar    1  UNL11      -0.0610
     25 C           1.0264    2.5844    0.3188 C.ar    1  UNL11      -0.0476
     26 C          -0.1191    1.8374    0.4220 C.ar    1  UNL11       0.0572
     27 H          -0.0488    1.8622   -2.1407 H       1  UNL11       0.0565
     28 H           1.3114    2.8788   -2.7436 H       1  UNL11       0.0565
     29 H           2.9753    1.2481   -1.9450 H       1  UNL11       0.0676
     30 H           2.4679    1.5719    0.2889 H       1  UNL11       0.2101
     31 H           1.8262   -0.8331   -2.1497 H       1  UNL11       0.1052
     32 H           2.1734   -0.5427   -0.4479 H       1  UNL11       0.1052
     33 H          -4.2570   -0.4864    0.9863 H       1  UNL11       0.0624
     34 H          -5.3143   -2.6206    0.3147 H       1  UNL11       0.0618
     35 H          -4.0936   -4.2402   -1.0683 H       1  UNL11       0.0618
     36 H          -1.7778   -3.7490   -1.8084 H       1  UNL11       0.0627
     37 H          -1.9737    3.9404    2.3172 H       1  UNL11       0.0625
     38 H           0.1002    5.2805    2.1226 H       1  UNL11       0.0618
     39 H           2.0331    4.3681    0.8152 H       1  UNL11       0.0618
     40 H           1.8664    2.2233   -0.2199 H       1  UNL11       0.0626
     41 H           0.3943    2.4607   -6.6538 H       1  UNL11       0.2280
@<TRIPOS>BOND
     1     1     2    2
     2     2     3    2
     3     3     4    1
     4     4     5    1
     5     4    27    1
     6     4    28    1
     7     5     6    1
     8     5     7    1
     9     5    29    1
    10     6    30    1
    11     7     8    1
    12     7    31    1
    13     7    32    1
    14     8     9    1
    15     9    10    2
    16    10    11    1
    17    10    19    1
    18    11    12   ar
    19    12    13   ar
    20    12    33    1
    21    13    14   ar
    22    13    34    1
    23    14    15   ar
    24    14    35    1
    25    15    16   ar
    26    15    36    1
    27    16    17    1
    28    16    11   ar
    29    17    18    2
    30    17     8   am
    31    19    20    2
    32    19    21    1
    33    21    22   ar
    34    22    23   ar
    35    22    37    1
    36    23    24   ar
    37    23    38    1
    38    24    25   ar
    39    24    39    1
    40    25    26   ar
    41    25    40    1
    42    26    21   ar
    43    26     9    1
    44     1    41    1
