@<TRIPOS>MOLECULE
*****
 55 59 0 0 0
SMALL
GASTEIGER

@<TRIPOS>ATOM
      1 O          -0.9176    0.7462   -2.5912 O.2     1  UNL11      -0.2699
      2 C          -0.5029    0.4217   -1.4654 C.2     1  UNL11       0.2494
      3 C           0.6491    1.0612   -0.8254 C.ar    1  UNL11       0.0723
      4 C           1.3856    0.2663    0.0291 C.ar    1  UNL11      -0.0433
      5 C           2.5072    0.7531    0.7212 C.ar    1  UNL11      -0.0405
      6 C           3.2107   -0.1755    1.6219 C.3     1  UNL11       0.0211
      7 C           4.6060   -0.3353    1.1882 C.2     1  UNL11       0.1192
      8 N           5.1856   -1.5367    1.4485 N.2     1  UNL11      -0.0073
      9 N           6.3996   -1.8393    1.0603 N.am    1  UNL11      -0.0356
     10 C           7.1558   -0.9692    0.3720 C.2     1  UNL11       0.4383
     11 O           8.3131   -1.2477   -0.0035 O.2     1  UNL11      -0.2116
     12 C           6.6053    0.2635    0.0883 C.ar    1  UNL11       0.1004
     13 C           7.3460    1.2201   -0.6052 C.ar    1  UNL11      -0.0441
     14 C           6.7869    2.4615   -0.8653 C.ar    1  UNL11      -0.0608
     15 C           5.5204    2.7618   -0.4513 C.ar    1  UNL11      -0.0611
     16 C           4.7628    1.8221    0.2427 C.ar    1  UNL11      -0.0518
     17 C           5.3270    0.5938    0.4931 C.ar    1  UNL11       0.0192
     18 C           2.8227    2.0595    0.4952 C.ar    1  UNL11      -0.0555
     19 C           2.0802    2.8760   -0.3729 C.ar    1  UNL11      -0.0254
     20 C           0.9912    2.3572   -1.0278 C.ar    1  UNL11       0.1355
     21 F           0.2435    3.1095   -1.8768 F       1  UNL11      -0.2047
     22 N          -1.1294   -0.6130   -0.7064 N.am    1  UNL11      -0.2959
     23 C          -0.8651   -1.1683    0.6045 C.3     1  UNL11       0.0276
     24 C          -1.5531   -2.4306    0.1869 C.3     1  UNL11       0.0671
     25 C          -2.4571   -2.9540    1.2116 C.2     1  UNL11       0.2217
     26 O          -2.2216   -2.7460    2.4644 O.2     1  UNL11      -0.2752
     27 N          -3.6052   -3.6987    0.8512 N.am    1  UNL11      -0.3012
     28 C          -4.0912   -4.0833   -0.4401 C.3     1  UNL11       0.0147
     29 C          -4.5224   -5.5251   -0.2142 C.3     1  UNL11      -0.0357
     30 C          -4.8352   -5.6179    1.2613 C.3     1  UNL11      -0.0357
     31 C          -4.5766   -4.2407    1.8195 C.3     1  UNL11       0.0147
     32 C          -2.2275   -1.5352   -0.8422 C.3     1  UNL11       0.0276
     33 H           1.1394   -0.7699    0.2104 H       1  UNL11       0.0629
     34 H           2.7431   -1.2046    1.5971 H       1  UNL11       0.0379
     35 H           3.1155    0.1114    2.6907 H       1  UNL11       0.0379
     36 H           6.8350   -2.7930    1.2765 H       1  UNL11       0.4829
     37 H           8.3392    0.9494   -0.9156 H       1  UNL11       0.0627
     38 H           7.4007    3.1779   -1.4102 H       1  UNL11       0.0618
     39 H           5.1110    3.7341   -0.6649 H       1  UNL11       0.0618
     40 H           3.7683    2.0504    0.5947 H       1  UNL11       0.0624
     41 H           3.6592    2.5256    0.9888 H       1  UNL11       0.0621
     42 H           2.3789    3.9139   -0.5171 H       1  UNL11       0.0646
     43 H           0.2127   -1.2351    0.8594 H       1  UNL11       0.0472
     44 H          -1.4661   -0.5801    1.3516 H       1  UNL11       0.0472
     45 H          -0.8499   -3.1689   -0.2608 H       1  UNL11       0.0425
     46 H          -4.9573   -3.4546   -0.7558 H       1  UNL11       0.0464
     47 H          -3.3780   -4.0585   -1.2591 H       1  UNL11       0.0464
     48 H          -3.6638   -6.1832   -0.4759 H       1  UNL11       0.0281
     49 H          -5.4062   -5.7559   -0.8421 H       1  UNL11       0.0281
     50 H          -5.8834   -5.9470    1.4364 H       1  UNL11       0.0281
     51 H          -4.1126   -6.3162    1.7627 H       1  UNL11       0.0281
     52 H          -5.4453   -3.5733    1.7917 H       1  UNL11       0.0464
     53 H          -4.1099   -4.2970    2.8286 H       1  UNL11       0.0464
     54 H          -3.1885   -1.1512   -0.3908 H       1  UNL11       0.0472
     55 H          -2.3540   -1.9972   -1.8435 H       1  UNL11       0.0472
@<TRIPOS>BOND
     1     1     2    2
     2     2     3    1
     3     2    22   am
     4     3     4   ar
     5     4     5   ar
     6     4    33    1
     7     5     6    1
     8     5    18   ar
     9     6     7    1
    10     6    34    1
    11     6    35    1
    12     7     8    2
    13     8     9    1
    14     9    10   am
    15     9    36    1
    16    10    11    2
    17    10    12    1
    18    12    13   ar
    19    13    14   ar
    20    13    37    1
    21    14    15   ar
    22    14    38    1
    23    15    16   ar
    24    15    39    1
    25    16    17   ar
    26    16    40    1
    27    17     7    1
    28    17    12   ar
    29    18    19   ar
    30    18    41    1
    31    19    20   ar
    32    19    42    1
    33    20    21    1
    34    20     3   ar
    35    22    23    1
    36    23    24    1
    37    23    43    1
    38    23    44    1
    39    24    25    1
    40    24    32    1
    41    24    45    1
    42    25    26    2
    43    25    27   am
    44    27    28    1
    45    28    29    1
    46    28    46    1
    47    28    47    1
    48    29    30    1
    49    29    48    1
    50    29    49    1
    51    30    31    1
    52    30    50    1
    53    30    51    1
    54    31    27    1
    55    31    52    1
    56    31    53    1
    57    32    22    1
    58    32    54    1
    59    32    55    1
@<TRIPOS>MOLECULE
*****
 55 59 0 0 0
SMALL
GASTEIGER

@<TRIPOS>ATOM
      1 O          -1.2462    1.0134   -2.2668 O.2     1  UNL11      -0.2699
      2 C          -0.5029    0.4217   -1.4654 C.2     1  UNL11       0.2494
      3 C           0.6491    1.0612   -0.8254 C.ar    1  UNL11       0.0723
      4 C           1.3856    0.2663    0.0291 C.ar    1  UNL11      -0.0433
      5 C           2.5072    0.7531    0.7212 C.ar    1  UNL11      -0.0405
      6 C           3.2107   -0.1755    1.6219 C.3     1  UNL11       0.0211
      7 C           3.0722   -1.5537    1.1301 C.2     1  UNL11       0.1192
      8 N           4.2257   -2.2063    0.8290 N.2     1  UNL11      -0.0073
      9 N           4.2545   -3.4581    0.4437 N.am    1  UNL11      -0.0356
     10 C           3.1308   -4.1827    0.3211 C.2     1  UNL11       0.4383
     11 O           3.1471   -5.3760   -0.0442 O.2     1  UNL11      -0.2116
     12 C           1.9372   -3.5568    0.6156 C.ar    1  UNL11       0.1004
     13 C           0.7325   -4.2476    0.4883 C.ar    1  UNL11      -0.0441
     14 C          -0.4604   -3.5995    0.7682 C.ar    1  UNL11      -0.0608
     15 C          -0.4729   -2.2931    1.1665 C.ar    1  UNL11      -0.0611
     16 C           0.7179   -1.5840    1.3002 C.ar    1  UNL11      -0.0518
     17 C           1.8946   -2.2377    1.0218 C.ar    1  UNL11       0.0192
     18 C           2.8227    2.0595    0.4952 C.ar    1  UNL11      -0.0555
     19 C           2.0802    2.8760   -0.3729 C.ar    1  UNL11      -0.0254
     20 C           0.9912    2.3572   -1.0278 C.ar    1  UNL11       0.1355
     21 F           0.2435    3.1095   -1.8768 F       1  UNL11      -0.2047
     22 N          -0.7229   -0.9432   -1.1081 N.am    1  UNL11      -0.2959
     23 C          -0.0347   -1.8479   -0.2111 C.3     1  UNL11       0.0276
     24 C          -0.5813   -3.0041   -0.9894 C.3     1  UNL11       0.0671
     25 C          -1.0832   -4.0811   -0.1354 C.2     1  UNL11       0.2217
     26 O          -2.3167   -4.0959    0.2473 O.2     1  UNL11      -0.2752
     27 N          -0.2282   -5.1259    0.2888 N.am    1  UNL11      -0.3012
     28 C           1.1630   -5.3465    0.0288 C.3     1  UNL11       0.0147
     29 C           1.6858   -5.7908    1.3871 C.3     1  UNL11      -0.0357
     30 C           0.4901   -6.3819    2.0973 C.3     1  UNL11      -0.0357
     31 C          -0.6602   -6.2579    1.1296 C.3     1  UNL11       0.0147
     32 C          -1.6438   -2.0049   -1.4235 C.3     1  UNL11       0.0276
     33 H           1.1394   -0.7699    0.2104 H       1  UNL11       0.0629
     34 H           2.7658   -0.1554    2.6611 H       1  UNL11       0.0379
     35 H           4.2661    0.1204    1.8012 H       1  UNL11       0.0379
     36 H           5.1759   -3.9515    0.2125 H       1  UNL11       0.4829
     37 H           0.7801   -5.2743    0.1724 H       1  UNL11       0.0627
     38 H          -1.3771   -4.1772    0.6560 H       1  UNL11       0.0618
     39 H          -1.4135   -1.8132    1.3758 H       1  UNL11       0.0618
     40 H           0.7241   -0.5454    1.5942 H       1  UNL11       0.0624
     41 H           3.6592    2.5256    0.9888 H       1  UNL11       0.0621
     42 H           2.3789    3.9139   -0.5171 H       1  UNL11       0.0646
     43 H           1.0672   -1.7191   -0.1951 H       1  UNL11       0.0472
     44 H          -0.5115   -1.7510    0.8032 H       1  UNL11       0.0472
     45 H           0.0964   -3.3176   -1.8156 H       1  UNL11       0.0425
     46 H           1.3153   -6.1448   -0.7357 H       1  UNL11       0.0464
     47 H           1.7414   -4.4888   -0.3023 H       1  UNL11       0.0464
     48 H           2.0542   -4.8876    1.9232 H       1  UNL11       0.0281
     49 H           2.4986   -6.5326    1.2529 H       1  UNL11       0.0281
     50 H           0.6723   -7.4389    2.3928 H       1  UNL11       0.0281
     51 H           0.2319   -5.7593    2.9956 H       1  UNL11       0.0281
     52 H          -0.7771   -7.1150    0.4570 H       1  UNL11       0.0464
     53 H          -1.6039   -5.9946    1.6584 H       1  UNL11       0.0464
     54 H          -2.5047   -2.0769   -0.6966 H       1  UNL11       0.0472
     55 H          -1.9462   -2.0865   -2.4884 H       1  UNL11       0.0472
@<TRIPOS>BOND
     1     1     2    2
     2     2     3    1
     3     2    22   am
     4     3     4   ar
     5     4     5   ar
     6     4    33    1
     7     5     6    1
     8     5    18   ar
     9     6     7    1
    10     6    34    1
    11     6    35    1
    12     7     8    2
    13     8     9    1
    14     9    10   am
    15     9    36    1
    16    10    11    2
    17    10    12    1
    18    12    13   ar
    19    13    14   ar
    20    13    37    1
    21    14    15   ar
    22    14    38    1
    23    15    16   ar
    24    15    39    1
    25    16    17   ar
    26    16    40    1
    27    17     7    1
    28    17    12   ar
    29    18    19   ar
    30    18    41    1
    31    19    20   ar
    32    19    42    1
    33    20    21    1
    34    20     3   ar
    35    22    23    1
    36    23    24    1
    37    23    43    1
    38    23    44    1
    39    24    25    1
    40    24    32    1
    41    24    45    1
    42    25    26    2
    43    25    27   am
    44    27    28    1
    45    28    29    1
    46    28    46    1
    47    28    47    1
    48    29    30    1
    49    29    48    1
    50    29    49    1
    51    30    31    1
    52    30    50    1
    53    30    51    1
    54    31    27    1
    55    31    52    1
    56    31    53    1
    57    32    22    1
    58    32    54    1
    59    32    55    1
@<TRIPOS>MOLECULE
*****
 55 59 0 0 0
SMALL
GASTEIGER

@<TRIPOS>ATOM
      1 O          -1.2462    1.0134   -2.2668 O.2     1  UNL11      -0.2699
      2 C          -0.5029    0.4217   -1.4654 C.2     1  UNL11       0.2494
      3 C           0.6491    1.0612   -0.8254 C.ar    1  UNL11       0.0723
      4 C           1.3856    0.2663    0.0291 C.ar    1  UNL11      -0.0433
      5 C           2.5072    0.7531    0.7212 C.ar    1  UNL11      -0.0405
      6 C           3.2107   -0.1755    1.6219 C.3     1  UNL11       0.0211
      7 C           3.0722   -1.5537    1.1301 C.2     1  UNL11       0.1192
      8 N           4.2257   -2.2063    0.8290 N.2     1  UNL11      -0.0073
      9 N           4.2545   -3.4581    0.4437 N.am    1  UNL11      -0.0356
     10 C           3.1308   -4.1827    0.3211 C.2     1  UNL11       0.4383
     11 O           3.1471   -5.3760   -0.0442 O.2     1  UNL11      -0.2116
     12 C           1.9372   -3.5568    0.6156 C.ar    1  UNL11       0.1004
     13 C           0.7325   -4.2476    0.4883 C.ar    1  UNL11      -0.0441
     14 C          -0.4604   -3.5995    0.7682 C.ar    1  UNL11      -0.0608
     15 C          -0.4729   -2.2931    1.1665 C.ar    1  UNL11      -0.0611
     16 C           0.7179   -1.5840    1.3002 C.ar    1  UNL11      -0.0518
     17 C           1.8946   -2.2377    1.0218 C.ar    1  UNL11       0.0192
     18 C           2.8227    2.0595    0.4952 C.ar    1  UNL11      -0.0555
     19 C           2.0802    2.8760   -0.3729 C.ar    1  UNL11      -0.0254
     20 C           0.9912    2.3572   -1.0278 C.ar    1  UNL11       0.1355
     21 F           0.2435    3.1095   -1.8768 F       1  UNL11      -0.2047
     22 N          -0.7229   -0.9432   -1.1081 N.am    1  UNL11      -0.2959
     23 C          -0.0347   -1.8479   -0.2111 C.3     1  UNL11       0.0276
     24 C          -0.5813   -3.0041   -0.9894 C.3     1  UNL11       0.0671
     25 C          -1.0832   -4.0811   -0.1354 C.2     1  UNL11       0.2217
     26 O          -0.3040   -5.0412    0.2381 O.2     1  UNL11      -0.2752
     27 N          -2.4305   -4.0932    0.2969 N.am    1  UNL11      -0.3012
     28 C          -3.4977   -3.1770    0.0259 C.3     1  UNL11       0.0147
     29 C          -4.6747   -4.1076   -0.2280 C.3     1  UNL11      -0.0357
     30 C          -4.3453   -5.3764    0.5238 C.3     1  UNL11      -0.0357
     31 C          -3.0078   -5.1278    1.1752 C.3     1  UNL11       0.0147
     32 C          -1.6438   -2.0049   -1.4235 C.3     1  UNL11       0.0276
     33 H           1.1394   -0.7699    0.2104 H       1  UNL11       0.0629
     34 H           2.7658   -0.1554    2.6611 H       1  UNL11       0.0379
     35 H           4.2661    0.1204    1.8012 H       1  UNL11       0.0379
     36 H           5.1759   -3.9515    0.2125 H       1  UNL11       0.4829
     37 H           0.7801   -5.2743    0.1724 H       1  UNL11       0.0627
     38 H          -1.3771   -4.1772    0.6560 H       1  UNL11       0.0618
     39 H          -1.4135   -1.8132    1.3758 H       1  UNL11       0.0618
     40 H           0.7241   -0.5454    1.5942 H       1  UNL11       0.0624
     41 H           3.6592    2.5256    0.9888 H       1  UNL11       0.0621
     42 H           2.3789    3.9139   -0.5171 H       1  UNL11       0.0646
     43 H           1.0672   -1.7191   -0.1951 H       1  UNL11       0.0472
     44 H          -0.5115   -1.7510    0.8032 H       1  UNL11       0.0472
     45 H           0.0964   -3.3176   -1.8156 H       1  UNL11       0.0425
     46 H          -3.6985   -2.5121    0.8992 H       1  UNL11       0.0464
     47 H          -3.3775   -2.5262   -0.8353 H       1  UNL11       0.0464
     48 H          -4.7263   -4.3018   -1.3228 H       1  UNL11       0.0281
     49 H          -5.6104   -3.6386    0.1372 H       1  UNL11       0.0281
     50 H          -5.1316   -5.6240    1.2708 H       1  UNL11       0.0281
     51 H          -4.2057   -6.2245   -0.1990 H       1  UNL11       0.0281
     52 H          -3.0697   -4.6843    2.1753 H       1  UNL11       0.0464
     53 H          -2.3717   -6.0411    1.1485 H       1  UNL11       0.0464
     54 H          -2.5047   -2.0769   -0.6966 H       1  UNL11       0.0472
     55 H          -1.9462   -2.0865   -2.4884 H       1  UNL11       0.0472
@<TRIPOS>BOND
     1     1     2    2
     2     2     3    1
     3     2    22   am
     4     3     4   ar
     5     4     5   ar
     6     4    33    1
     7     5     6    1
     8     5    18   ar
     9     6     7    1
    10     6    34    1
    11     6    35    1
    12     7     8    2
    13     8     9    1
    14     9    10   am
    15     9    36    1
    16    10    11    2
    17    10    12    1
    18    12    13   ar
    19    13    14   ar
    20    13    37    1
    21    14    15   ar
    22    14    38    1
    23    15    16   ar
    24    15    39    1
    25    16    17   ar
    26    16    40    1
    27    17     7    1
    28    17    12   ar
    29    18    19   ar
    30    18    41    1
    31    19    20   ar
    32    19    42    1
    33    20    21    1
    34    20     3   ar
    35    22    23    1
    36    23    24    1
    37    23    43    1
    38    23    44    1
    39    24    25    1
    40    24    32    1
    41    24    45    1
    42    25    26    2
    43    25    27   am
    44    27    28    1
    45    28    29    1
    46    28    46    1
    47    28    47    1
    48    29    30    1
    49    29    48    1
    50    29    49    1
    51    30    31    1
    52    30    50    1
    53    30    51    1
    54    31    27    1
    55    31    52    1
    56    31    53    1
    57    32    22    1
    58    32    54    1
    59    32    55    1
@<TRIPOS>MOLECULE
*****
 55 59 0 0 0
SMALL
GASTEIGER

@<TRIPOS>ATOM
      1 O          -0.9176    0.7462   -2.5912 O.2     1  UNL11      -0.2699
      2 C          -0.5029    0.4217   -1.4654 C.2     1  UNL11       0.2494
      3 C           0.6491    1.0612   -0.8254 C.ar    1  UNL11       0.0723
      4 C           1.3856    0.2663    0.0291 C.ar    1  UNL11      -0.0433
      5 C           2.5072    0.7531    0.7212 C.ar    1  UNL11      -0.0405
      6 C           3.2107   -0.1755    1.6219 C.3     1  UNL11       0.0211
      7 C           2.6411   -0.0915    2.9743 C.2     1  UNL11       0.1192
      8 N           2.6887    1.1267    3.5751 N.2     1  UNL11      -0.0073
      9 N           2.1605    1.3605    4.7509 N.am    1  UNL11      -0.0356
     10 C           1.5315    0.3978    5.4439 C.2     1  UNL11       0.4383
     11 O           1.0241    0.6101    6.5643 O.2     1  UNL11      -0.2116
     12 C           1.4624   -0.8548    4.8700 C.ar    1  UNL11       0.1004
     13 C           0.8410   -1.9037    5.5470 C.ar    1  UNL11      -0.0441
     14 C           0.7972   -3.1617    4.9666 C.ar    1  UNL11      -0.0608
     15 C           1.3550   -3.3891    3.7408 C.ar    1  UNL11      -0.0611
     16 C           1.9806   -2.3567    3.0469 C.ar    1  UNL11      -0.0518
     17 C           2.0161   -1.1131    3.6315 C.ar    1  UNL11       0.0192
     18 C           2.8227    2.0595    0.4952 C.ar    1  UNL11      -0.0555
     19 C           2.0802    2.8760   -0.3729 C.ar    1  UNL11      -0.0254
     20 C           0.9912    2.3572   -1.0278 C.ar    1  UNL11       0.1355
     21 F           0.2435    3.1095   -1.8768 F       1  UNL11      -0.2047
     22 N          -1.1294   -0.6130   -0.7064 N.am    1  UNL11      -0.2959
     23 C          -0.8651   -1.1683    0.6045 C.3     1  UNL11       0.0276
     24 C          -1.5531   -2.4306    0.1869 C.3     1  UNL11       0.0671
     25 C          -2.4571   -2.9540    1.2116 C.2     1  UNL11       0.2217
     26 O          -3.5121   -3.6209    0.8789 O.2     1  UNL11      -0.2752
     27 N          -2.1948   -2.7396    2.5855 N.am    1  UNL11      -0.3012
     28 C          -1.1235   -2.0353    3.2243 C.3     1  UNL11       0.0147
     29 C          -1.8428   -1.2684    4.3244 C.3     1  UNL11      -0.0357
     30 C          -3.0921   -2.0684    4.6125 C.3     1  UNL11      -0.0357
     31 C          -3.0419   -3.2518    3.6787 C.3     1  UNL11       0.0147
     32 C          -2.2275   -1.5352   -0.8422 C.3     1  UNL11       0.0276
     33 H           1.1394   -0.7699    0.2104 H       1  UNL11       0.0629
     34 H           4.3054    0.0919    1.7135 H       1  UNL11       0.0379
     35 H           3.2439   -1.2125    1.2255 H       1  UNL11       0.0379
     36 H           2.2098    2.3290    5.2041 H       1  UNL11       0.4829
     37 H           0.4131   -1.6885    6.5097 H       1  UNL11       0.0627
     38 H           0.3015   -3.9512    5.5303 H       1  UNL11       0.0618
     39 H           1.3085   -4.3761    3.3137 H       1  UNL11       0.0618
     40 H           2.4441   -2.5244    2.0866 H       1  UNL11       0.0624
     41 H           3.6592    2.5256    0.9888 H       1  UNL11       0.0621
     42 H           2.3789    3.9139   -0.5171 H       1  UNL11       0.0646
     43 H           0.2127   -1.2351    0.8594 H       1  UNL11       0.0472
     44 H          -1.4661   -0.5801    1.3516 H       1  UNL11       0.0472
     45 H          -0.8499   -3.1689   -0.2608 H       1  UNL11       0.0425
     46 H          -0.3717   -2.7376    3.6561 H       1  UNL11       0.0464
     47 H          -0.5694   -1.3284    2.6135 H       1  UNL11       0.0464
     48 H          -2.1036   -0.2627    3.9251 H       1  UNL11       0.0281
     49 H          -1.1876   -1.1851    5.2147 H       1  UNL11       0.0281
     50 H          -3.1390   -2.3822    5.6788 H       1  UNL11       0.0281
     51 H          -4.0017   -1.4705    4.3360 H       1  UNL11       0.0281
     52 H          -2.5229   -4.1260    4.0876 H       1  UNL11       0.0464
     53 H          -4.0542   -3.4975    3.2862 H       1  UNL11       0.0464
     54 H          -3.1885   -1.1512   -0.3908 H       1  UNL11       0.0472
     55 H          -2.3540   -1.9972   -1.8435 H       1  UNL11       0.0472
@<TRIPOS>BOND
     1     1     2    2
     2     2     3    1
     3     2    22   am
     4     3     4   ar
     5     4     5   ar
     6     4    33    1
     7     5     6    1
     8     5    18   ar
     9     6     7    1
    10     6    34    1
    11     6    35    1
    12     7     8    2
    13     8     9    1
    14     9    10   am
    15     9    36    1
    16    10    11    2
    17    10    12    1
    18    12    13   ar
    19    13    14   ar
    20    13    37    1
    21    14    15   ar
    22    14    38    1
    23    15    16   ar
    24    15    39    1
    25    16    17   ar
    26    16    40    1
    27    17     7    1
    28    17    12   ar
    29    18    19   ar
    30    18    41    1
    31    19    20   ar
    32    19    42    1
    33    20    21    1
    34    20     3   ar
    35    22    23    1
    36    23    24    1
    37    23    43    1
    38    23    44    1
    39    24    25    1
    40    24    32    1
    41    24    45    1
    42    25    26    2
    43    25    27   am
    44    27    28    1
    45    28    29    1
    46    28    46    1
    47    28    47    1
    48    29    30    1
    49    29    48    1
    50    29    49    1
    51    30    31    1
    52    30    50    1
    53    30    51    1
    54    31    27    1
    55    31    52    1
    56    31    53    1
    57    32    22    1
    58    32    54    1
    59    32    55    1
@<TRIPOS>MOLECULE
*****
 55 59 0 0 0
SMALL
GASTEIGER

@<TRIPOS>ATOM
      1 O          -0.9176    0.7462   -2.5912 O.2     1  UNL11      -0.2699
      2 C          -0.5029    0.4217   -1.4654 C.2     1  UNL11       0.2494
      3 C           0.6491    1.0612   -0.8254 C.ar    1  UNL11       0.0723
      4 C           1.3856    0.2663    0.0291 C.ar    1  UNL11      -0.0433
      5 C           2.5072    0.7531    0.7212 C.ar    1  UNL11      -0.0405
      6 C           3.2107   -0.1755    1.6219 C.3     1  UNL11       0.0211
      7 C           4.6383    0.1688    1.6826 C.2     1  UNL11       0.1192
      8 N           5.0359    1.2309    0.9335 N.2     1  UNL11      -0.0073
      9 N           6.2636    1.6880    0.9435 N.am    1  UNL11      -0.0356
     10 C           7.2171    1.1275    1.7047 C.2     1  UNL11       0.4383
     11 O           8.3893    1.5558    1.7224 O.2     1  UNL11      -0.2116
     12 C           6.8554    0.0450    2.4796 C.ar    1  UNL11       0.1004
     13 C           7.8034   -0.5955    3.2769 C.ar    1  UNL11      -0.0441
     14 C           7.4299   -1.6945    4.0344 C.ar    1  UNL11      -0.0608
     15 C           6.1460   -2.1599    4.0108 C.ar    1  UNL11      -0.0611
     16 C           5.1830   -1.5360    3.2220 C.ar    1  UNL11      -0.0518
     17 C           5.5647   -0.4459    2.4766 C.ar    1  UNL11       0.0192
     18 C           2.8227    2.0595    0.4952 C.ar    1  UNL11      -0.0555
     19 C           2.0802    2.8760   -0.3729 C.ar    1  UNL11      -0.0254
     20 C           0.9912    2.3572   -1.0278 C.ar    1  UNL11       0.1355
     21 F           0.2435    3.1095   -1.8768 F       1  UNL11      -0.2047
     22 N          -1.1294   -0.6130   -0.7064 N.am    1  UNL11      -0.2959
     23 C          -2.2643   -1.4736   -0.9668 C.3     1  UNL11       0.0276
     24 C          -2.4370   -1.6594    0.5086 C.3     1  UNL11       0.0671
     25 C          -2.6973   -3.0500    0.8825 C.2     1  UNL11       0.2217
     26 O          -2.8832   -3.3746    2.1188 O.2     1  UNL11      -0.2752
     27 N          -2.7495   -4.0658   -0.1013 N.am    1  UNL11      -0.3012
     28 C          -2.9850   -5.4724    0.0323 C.3     1  UNL11       0.0147
     29 C          -3.9224   -5.7618   -1.1309 C.3     1  UNL11      -0.0357
     30 C          -3.6300   -4.6865   -2.1516 C.3     1  UNL11      -0.0357
     31 C          -2.5464   -3.8317   -1.5431 C.3     1  UNL11       0.0147
     32 C          -0.9697   -1.2607    0.5702 C.3     1  UNL11       0.0276
     33 H           1.1394   -0.7699    0.2104 H       1  UNL11       0.0629
     34 H           3.1491   -1.2394    1.2442 H       1  UNL11       0.0379
     35 H           2.7345   -0.2428    2.6231 H       1  UNL11       0.0379
     36 H           6.5533    2.5269    0.3451 H       1  UNL11       0.4829
     37 H           8.8041   -0.2022    3.2708 H       1  UNL11       0.0627
     38 H           8.2023   -2.1634    4.6429 H       1  UNL11       0.0618
     39 H           5.8831   -3.0164    4.6074 H       1  UNL11       0.0618
     40 H           4.1692   -1.9036    3.1762 H       1  UNL11       0.0624
     41 H           3.6592    2.5256    0.9888 H       1  UNL11       0.0621
     42 H           2.3789    3.9139   -0.5171 H       1  UNL11       0.0646
     43 H          -3.0904   -0.9797   -1.5188 H       1  UNL11       0.0472
     44 H          -1.8797   -2.4017   -1.4730 H       1  UNL11       0.0472
     45 H          -3.1212   -0.9023    0.9544 H       1  UNL11       0.0425
     46 H          -2.0395   -6.0570   -0.0647 H       1  UNL11       0.0464
     47 H          -3.4593   -5.8044    0.9514 H       1  UNL11       0.0464
     48 H          -4.9672   -5.6750   -0.7571 H       1  UNL11       0.0281
     49 H          -3.7255   -6.7776   -1.5287 H       1  UNL11       0.0281
     50 H          -3.3169   -5.1229   -3.1259 H       1  UNL11       0.0281
     51 H          -4.5309   -4.0293   -2.2842 H       1  UNL11       0.0281
     52 H          -1.5281   -4.1668   -1.7698 H       1  UNL11       0.0464
     53 H          -2.7062   -2.7546   -1.7751 H       1  UNL11       0.0464
     54 H          -0.3517   -2.2039    0.5156 H       1  UNL11       0.0472
     55 H          -0.7067   -0.5993    1.4220 H       1  UNL11       0.0472
@<TRIPOS>BOND
     1     1     2    2
     2     2     3    1
     3     2    22   am
     4     3     4   ar
     5     4     5   ar
     6     4    33    1
     7     5     6    1
     8     5    18   ar
     9     6     7    1
    10     6    34    1
    11     6    35    1
    12     7     8    2
    13     8     9    1
    14     9    10   am
    15     9    36    1
    16    10    11    2
    17    10    12    1
    18    12    13   ar
    19    13    14   ar
    20    13    37    1
    21    14    15   ar
    22    14    38    1
    23    15    16   ar
    24    15    39    1
    25    16    17   ar
    26    16    40    1
    27    17     7    1
    28    17    12   ar
    29    18    19   ar
    30    18    41    1
    31    19    20   ar
    32    19    42    1
    33    20    21    1
    34    20     3   ar
    35    22    23    1
    36    23    24    1
    37    23    43    1
    38    23    44    1
    39    24    25    1
    40    24    32    1
    41    24    45    1
    42    25    26    2
    43    25    27   am
    44    27    28    1
    45    28    29    1
    46    28    46    1
    47    28    47    1
    48    29    30    1
    49    29    48    1
    50    29    49    1
    51    30    31    1
    52    30    50    1
    53    30    51    1
    54    31    27    1
    55    31    52    1
    56    31    53    1
    57    32    22    1
    58    32    54    1
    59    32    55    1
@<TRIPOS>MOLECULE
*****
 55 59 0 0 0
SMALL
GASTEIGER

@<TRIPOS>ATOM
      1 O          -1.5298    1.0438   -1.7867 O.2     1  UNL11      -0.2699
      2 C          -0.5029    0.4217   -1.4654 C.2     1  UNL11       0.2494
      3 C           0.6491    1.0612   -0.8254 C.ar    1  UNL11       0.0723
      4 C           1.3856    0.2663    0.0291 C.ar    1  UNL11      -0.0433
      5 C           2.5072    0.7531    0.7212 C.ar    1  UNL11      -0.0405
      6 C           3.2107   -0.1755    1.6219 C.3     1  UNL11       0.0211
      7 C           4.3396    0.5096    2.2673 C.2     1  UNL11       0.1192
      8 N           4.2010    1.8470    2.4658 N.2     1  UNL11      -0.0073
      9 N           5.0991    2.5702    3.0875 N.am    1  UNL11      -0.0356
     10 C           6.2269    2.0271    3.5731 C.2     1  UNL11       0.4383
     11 O           7.0884    2.7068    4.1678 O.2     1  UNL11      -0.2116
     12 C           6.4076    0.6716    3.3911 C.ar    1  UNL11       0.1004
     13 C           7.5671    0.0499    3.8533 C.ar    1  UNL11      -0.0441
     14 C           7.7440   -1.3090    3.6451 C.ar    1  UNL11      -0.0608
     15 C           6.7987   -2.0483    2.9928 C.ar    1  UNL11      -0.0611
     16 C           5.6334   -1.4483    2.5227 C.ar    1  UNL11      -0.0518
     17 C           5.4682   -0.1006    2.7368 C.ar    1  UNL11       0.0192
     18 C           2.8227    2.0595    0.4952 C.ar    1  UNL11      -0.0555
     19 C           2.0802    2.8760   -0.3729 C.ar    1  UNL11      -0.0254
     20 C           0.9912    2.3572   -1.0278 C.ar    1  UNL11       0.1355
     21 F           0.2435    3.1095   -1.8768 F       1  UNL11      -0.2047
     22 N          -0.3723   -0.9805   -1.7019 N.am    1  UNL11      -0.2959
     23 C          -1.2539   -1.9636   -2.2959 C.3     1  UNL11       0.0276
     24 C          -0.5340   -3.0369   -1.5402 C.3     1  UNL11       0.0671
     25 C          -0.2497   -4.2175   -2.3566 C.2     1  UNL11       0.2217
     26 O          -1.0293   -4.5448   -3.3331 O.2     1  UNL11      -0.2752
     27 N           0.8826   -5.0240   -2.0924 N.am    1  UNL11      -0.3012
     28 C           1.3496   -6.2078   -2.7500 C.3     1  UNL11       0.0147
     29 C           2.8506   -5.9705   -2.8296 C.3     1  UNL11      -0.0357
     30 C           3.1634   -5.0294   -1.6894 C.3     1  UNL11      -0.0357
     31 C           1.8452   -4.7670   -1.0050 C.3     1  UNL11       0.0147
     32 C           0.5995   -2.0228   -1.4929 C.3     1  UNL11       0.0276
     33 H           1.1394   -0.7699    0.2104 H       1  UNL11       0.0629
     34 H           3.6447   -1.0503    1.0521 H       1  UNL11       0.0379
     35 H           2.5276   -0.6688    2.3455 H       1  UNL11       0.0379
     36 H           4.9675    3.6226    3.2327 H       1  UNL11       0.4829
     37 H           8.2896    0.6625    4.3620 H       1  UNL11       0.0627
     38 H           8.6640   -1.7533    4.0233 H       1  UNL11       0.0618
     39 H           6.9620   -3.1016    2.8430 H       1  UNL11       0.0618
     40 H           4.8861   -2.0141    1.9875 H       1  UNL11       0.0624
     41 H           3.6592    2.5256    0.9888 H       1  UNL11       0.0621
     42 H           2.3789    3.9139   -0.5171 H       1  UNL11       0.0646
     43 H          -2.3277   -1.8087   -2.0634 H       1  UNL11       0.0472
     44 H          -1.0349   -1.9962   -3.3988 H       1  UNL11       0.0472
     45 H          -0.9928   -3.2358   -0.5451 H       1  UNL11       0.0425
     46 H           1.1234   -7.1236   -2.1541 H       1  UNL11       0.0464
     47 H           0.9735   -6.3919   -3.7522 H       1  UNL11       0.0464
     48 H           3.0684   -5.4877   -3.8086 H       1  UNL11       0.0281
     49 H           3.3892   -6.9345   -2.7331 H       1  UNL11       0.0281
     50 H           3.9132   -5.4666   -0.9934 H       1  UNL11       0.0281
     51 H           3.5252   -4.0458   -2.0930 H       1  UNL11       0.0281
     52 H           1.6041   -5.4764   -0.2054 H       1  UNL11       0.0464
     53 H           1.7668   -3.7062   -0.6766 H       1  UNL11       0.0464
     54 H           1.2609   -2.2002   -2.3906 H       1  UNL11       0.0472
     55 H           1.1490   -1.9897   -0.5290 H       1  UNL11       0.0472
@<TRIPOS>BOND
     1     1     2    2
     2     2     3    1
     3     2    22   am
     4     3     4   ar
     5     4     5   ar
     6     4    33    1
     7     5     6    1
     8     5    18   ar
     9     6     7    1
    10     6    34    1
    11     6    35    1
    12     7     8    2
    13     8     9    1
    14     9    10   am
    15     9    36    1
    16    10    11    2
    17    10    12    1
    18    12    13   ar
    19    13    14   ar
    20    13    37    1
    21    14    15   ar
    22    14    38    1
    23    15    16   ar
    24    15    39    1
    25    16    17   ar
    26    16    40    1
    27    17     7    1
    28    17    12   ar
    29    18    19   ar
    30    18    41    1
    31    19    20   ar
    32    19    42    1
    33    20    21    1
    34    20     3   ar
    35    22    23    1
    36    23    24    1
    37    23    43    1
    38    23    44    1
    39    24    25    1
    40    24    32    1
    41    24    45    1
    42    25    26    2
    43    25    27   am
    44    27    28    1
    45    28    29    1
    46    28    46    1
    47    28    47    1
    48    29    30    1
    49    29    48    1
    50    29    49    1
    51    30    31    1
    52    30    50    1
    53    30    51    1
    54    31    27    1
    55    31    52    1
    56    31    53    1
    57    32    22    1
    58    32    54    1
    59    32    55    1
@<TRIPOS>MOLECULE
*****
 55 59 0 0 0
SMALL
GASTEIGER

@<TRIPOS>ATOM
      1 O          -1.1443   -0.5020   -0.9361 O.2     1  UNL11      -0.2699
      2 C          -0.5029    0.4217   -1.4654 C.2     1  UNL11       0.2494
      3 C           0.6491    1.0612   -0.8254 C.ar    1  UNL11       0.0723
      4 C           1.3856    0.2663    0.0291 C.ar    1  UNL11      -0.0433
      5 C           2.5072    0.7531    0.7212 C.ar    1  UNL11      -0.0405
      6 C           3.2107   -0.1755    1.6219 C.3     1  UNL11       0.0211
      7 C           4.6060   -0.3353    1.1882 C.2     1  UNL11       0.1192
      8 N           4.7965   -0.8121   -0.0702 N.2     1  UNL11      -0.0073
      9 N           5.9835   -0.9421   -0.6090 N.am    1  UNL11      -0.0356
     10 C           7.0997   -0.6076    0.0582 C.2     1  UNL11       0.4383
     11 O           8.2352   -0.7265   -0.4461 O.2     1  UNL11      -0.2116
     12 C           6.9504   -0.1208    1.3403 C.ar    1  UNL11       0.1004
     13 C           8.0712    0.2252    2.0946 C.ar    1  UNL11      -0.0441
     14 C           7.9067    0.6938    3.3886 C.ar    1  UNL11      -0.0608
     15 C           6.6619    0.8211    3.9363 C.ar    1  UNL11      -0.0611
     16 C           5.5290    0.4815    3.2016 C.ar    1  UNL11      -0.0518
     17 C           5.7044    0.0198    1.9187 C.ar    1  UNL11       0.0192
     18 C           2.8227    2.0595    0.4952 C.ar    1  UNL11      -0.0555
     19 C           2.0802    2.8760   -0.3729 C.ar    1  UNL11      -0.0254
     20 C           0.9912    2.3572   -1.0278 C.ar    1  UNL11       0.1355
     21 F           0.2435    3.1095   -1.8768 F       1  UNL11      -0.2047
     22 N          -0.8500    0.9320   -2.7531 N.am    1  UNL11      -0.2959
     23 C          -1.8921    0.5894   -3.6982 C.3     1  UNL11       0.0276
     24 C          -1.0556    1.1639   -4.7989 C.3     1  UNL11       0.0671
     25 C          -1.8248    1.9932   -5.7273 C.2     1  UNL11       0.2217
     26 O          -1.2505    2.5510   -6.7409 O.2     1  UNL11      -0.2752
     27 N          -3.2109    2.2013   -5.5330 N.am    1  UNL11      -0.3012
     28 C          -4.0834    1.7224   -4.5029 C.3     1  UNL11       0.0147
     29 C          -4.9282    2.9487   -4.1898 C.3     1  UNL11      -0.0357
     30 C          -4.9062    3.7774   -5.4533 C.3     1  UNL11      -0.0357
     31 C          -4.0608    3.0029   -6.4332 C.3     1  UNL11       0.0147
     32 C          -0.3899    1.9409   -3.6725 C.3     1  UNL11       0.0276
     33 H           1.1394   -0.7699    0.2104 H       1  UNL11       0.0629
     34 H           2.7431   -1.2046    1.5971 H       1  UNL11       0.0379
     35 H           3.1155    0.1114    2.6907 H       1  UNL11       0.0379
     36 H           6.1088   -1.3195   -1.6028 H       1  UNL11       0.4829
     37 H           9.0351    0.1120    1.6317 H       1  UNL11       0.0627
     38 H           8.8092    0.9527    3.9411 H       1  UNL11       0.0618
     39 H           6.5626    1.1858    4.9441 H       1  UNL11       0.0618
     40 H           4.5396    0.5568    3.6266 H       1  UNL11       0.0624
     41 H           3.6592    2.5256    0.9888 H       1  UNL11       0.0621
     42 H           2.3789    3.9139   -0.5171 H       1  UNL11       0.0646
     43 H          -2.1225   -0.4948   -3.7455 H       1  UNL11       0.0472
     44 H          -2.7883    1.2277   -3.4640 H       1  UNL11       0.0472
     45 H          -0.3899    0.4036   -5.2668 H       1  UNL11       0.0425
     46 H          -4.7220    0.8821   -4.8649 H       1  UNL11       0.0464
     47 H          -3.6150    1.3798   -3.5847 H       1  UNL11       0.0464
     48 H          -4.4393    3.4955   -3.3527 H       1  UNL11       0.0281
     49 H          -5.9558    2.6370   -3.9146 H       1  UNL11       0.0281
     50 H          -5.9332    3.9569   -5.8416 H       1  UNL11       0.0281
     51 H          -4.3797    4.7511   -5.2634 H       1  UNL11       0.0281
     52 H          -4.6221    2.2882   -7.0454 H       1  UNL11       0.0464
     53 H          -3.4251    3.6844   -7.0422 H       1  UNL11       0.0464
     54 H          -0.9334    2.9242   -3.5614 H       1  UNL11       0.0472
     55 H           0.7109    2.0440   -3.7710 H       1  UNL11       0.0472
@<TRIPOS>BOND
     1     1     2    2
     2     2     3    1
     3     2    22   am
     4     3     4   ar
     5     4     5   ar
     6     4    33    1
     7     5     6    1
     8     5    18   ar
     9     6     7    1
    10     6    34    1
    11     6    35    1
    12     7     8    2
    13     8     9    1
    14     9    10   am
    15     9    36    1
    16    10    11    2
    17    10    12    1
    18    12    13   ar
    19    13    14   ar
    20    13    37    1
    21    14    15   ar
    22    14    38    1
    23    15    16   ar
    24    15    39    1
    25    16    17   ar
    26    16    40    1
    27    17     7    1
    28    17    12   ar
    29    18    19   ar
    30    18    41    1
    31    19    20   ar
    32    19    42    1
    33    20    21    1
    34    20     3   ar
    35    22    23    1
    36    23    24    1
    37    23    43    1
    38    23    44    1
    39    24    25    1
    40    24    32    1
    41    24    45    1
    42    25    26    2
    43    25    27   am
    44    27    28    1
    45    28    29    1
    46    28    46    1
    47    28    47    1
    48    29    30    1
    49    29    48    1
    50    29    49    1
    51    30    31    1
    52    30    50    1
    53    30    51    1
    54    31    27    1
    55    31    52    1
    56    31    53    1
    57    32    22    1
    58    32    54    1
    59    32    55    1
@<TRIPOS>MOLECULE
*****
 55 59 0 0 0
SMALL
GASTEIGER

@<TRIPOS>ATOM
      1 O          -1.5298    1.0438   -1.7867 O.2     1  UNL11      -0.2699
      2 C          -0.5029    0.4217   -1.4654 C.2     1  UNL11       0.2494
      3 C           0.6491    1.0612   -0.8254 C.ar    1  UNL11       0.0723
      4 C           1.3856    0.2663    0.0291 C.ar    1  UNL11      -0.0433
      5 C           2.5072    0.7531    0.7212 C.ar    1  UNL11      -0.0405
      6 C           3.2107   -0.1755    1.6219 C.3     1  UNL11       0.0211
      7 C           3.8147    0.5675    2.7371 C.2     1  UNL11       0.1192
      8 N           3.9244   -0.0979    3.9171 N.2     1  UNL11      -0.0073
      9 N           4.5012    0.4191    4.9736 N.am    1  UNL11      -0.0356
     10 C           5.0263    1.6546    4.9551 C.2     1  UNL11       0.4383
     11 O           5.5788    2.1561    5.9556 O.2     1  UNL11      -0.2116
     12 C           4.9344    2.3652    3.7763 C.ar    1  UNL11       0.1004
     13 C           5.4414    3.6619    3.6971 C.ar    1  UNL11      -0.0441
     14 C           5.3236    4.3712    2.5121 C.ar    1  UNL11      -0.0608
     15 C           4.7171    3.8183    1.4203 C.ar    1  UNL11      -0.0611
     16 C           4.2036    2.5253    1.4767 C.ar    1  UNL11      -0.0518
     17 C           4.3280    1.8310    2.6565 C.ar    1  UNL11       0.0192
     18 C           2.8227    2.0595    0.4952 C.ar    1  UNL11      -0.0555
     19 C           2.0802    2.8760   -0.3729 C.ar    1  UNL11      -0.0254
     20 C           0.9912    2.3572   -1.0278 C.ar    1  UNL11       0.1355
     21 F           0.2435    3.1095   -1.8768 F       1  UNL11      -0.2047
     22 N          -0.3723   -0.9805   -1.7019 N.am    1  UNL11      -0.2959
     23 C          -1.2539   -1.9636   -2.2959 C.3     1  UNL11       0.0276
     24 C          -0.5340   -3.0369   -1.5402 C.3     1  UNL11       0.0671
     25 C          -0.2497   -4.2175   -2.3566 C.2     1  UNL11       0.2217
     26 O          -0.1925   -5.3905   -1.8187 O.2     1  UNL11      -0.2752
     27 N          -0.0308   -4.0981   -3.7496 N.am    1  UNL11      -0.3012
     28 C          -0.0221   -2.9374   -4.5889 C.3     1  UNL11       0.0147
     29 C           1.1778   -3.1911   -5.4898 C.3     1  UNL11      -0.0357
     30 C           1.3403   -4.6932   -5.5188 C.3     1  UNL11      -0.0357
     31 C           0.2386   -5.2386   -4.6449 C.3     1  UNL11       0.0147
     32 C           0.5995   -2.0228   -1.4929 C.3     1  UNL11       0.0276
     33 H           1.1394   -0.7699    0.2104 H       1  UNL11       0.0629
     34 H           4.0559   -0.7037    1.0882 H       1  UNL11       0.0379
     35 H           2.5672   -1.0172    1.9554 H       1  UNL11       0.0379
     36 H           4.5765   -0.1248    5.8926 H       1  UNL11       0.4829
     37 H           5.9120    4.0652    4.5757 H       1  UNL11       0.0627
     38 H           5.7341    5.3801    2.4947 H       1  UNL11       0.0618
     39 H           4.6374    4.3918    0.5128 H       1  UNL11       0.0618
     40 H           3.7034    2.0813    0.6295 H       1  UNL11       0.0624
     41 H           3.6592    2.5256    0.9888 H       1  UNL11       0.0621
     42 H           2.3789    3.9139   -0.5171 H       1  UNL11       0.0646
     43 H          -2.3277   -1.8087   -2.0634 H       1  UNL11       0.0472
     44 H          -1.0349   -1.9962   -3.3988 H       1  UNL11       0.0472
     45 H          -0.9928   -3.2358   -0.5451 H       1  UNL11       0.0425
     46 H          -0.9596   -2.8588   -5.1889 H       1  UNL11       0.0464
     47 H           0.1098   -1.9782   -4.0967 H       1  UNL11       0.0464
     48 H           2.0647   -2.7089   -5.0210 H       1  UNL11       0.0281
     49 H           0.9853   -2.7739   -6.4987 H       1  UNL11       0.0281
     50 H           1.2825   -5.0900   -6.5565 H       1  UNL11       0.0281
     51 H           2.3135   -4.9823   -5.0387 H       1  UNL11       0.0281
     52 H          -0.6981   -5.4421   -5.1759 H       1  UNL11       0.0464
     53 H           0.5924   -6.1094   -4.0483 H       1  UNL11       0.0464
     54 H           1.2609   -2.2002   -2.3906 H       1  UNL11       0.0472
     55 H           1.1490   -1.9897   -0.5290 H       1  UNL11       0.0472
@<TRIPOS>BOND
     1     1     2    2
     2     2     3    1
     3     2    22   am
     4     3     4   ar
     5     4     5   ar
     6     4    33    1
     7     5     6    1
     8     5    18   ar
     9     6     7    1
    10     6    34    1
    11     6    35    1
    12     7     8    2
    13     8     9    1
    14     9    10   am
    15     9    36    1
    16    10    11    2
    17    10    12    1
    18    12    13   ar
    19    13    14   ar
    20    13    37    1
    21    14    15   ar
    22    14    38    1
    23    15    16   ar
    24    15    39    1
    25    16    17   ar
    26    16    40    1
    27    17     7    1
    28    17    12   ar
    29    18    19   ar
    30    18    41    1
    31    19    20   ar
    32    19    42    1
    33    20    21    1
    34    20     3   ar
    35    22    23    1
    36    23    24    1
    37    23    43    1
    38    23    44    1
    39    24    25    1
    40    24    32    1
    41    24    45    1
    42    25    26    2
    43    25    27   am
    44    27    28    1
    45    28    29    1
    46    28    46    1
    47    28    47    1
    48    29    30    1
    49    29    48    1
    50    29    49    1
    51    30    31    1
    52    30    50    1
    53    30    51    1
    54    31    27    1
    55    31    52    1
    56    31    53    1
    57    32    22    1
    58    32    54    1
    59    32    55    1
@<TRIPOS>MOLECULE
*****
 55 59 0 0 0
SMALL
GASTEIGER

@<TRIPOS>ATOM
      1 O          -1.5298    1.0438   -1.7867 O.2     1  UNL11      -0.2699
      2 C          -0.5029    0.4217   -1.4654 C.2     1  UNL11       0.2494
      3 C           0.6491    1.0612   -0.8254 C.ar    1  UNL11       0.0723
      4 C           1.3856    0.2663    0.0291 C.ar    1  UNL11      -0.0433
      5 C           2.5072    0.7531    0.7212 C.ar    1  UNL11      -0.0405
      6 C           3.2107   -0.1755    1.6219 C.3     1  UNL11       0.0211
      7 C           4.6060   -0.3353    1.1882 C.2     1  UNL11       0.1192
      8 N           4.8534   -1.3405    0.3075 N.2     1  UNL11      -0.0073
      9 N           6.0367   -1.5552   -0.2120 N.am    1  UNL11      -0.0356
     10 C           7.0918   -0.7850    0.0982 C.2     1  UNL11       0.4383
     11 O           8.2230   -0.9802   -0.3916 O.2     1  UNL11      -0.2116
     12 C           6.8838    0.2462    0.9907 C.ar    1  UNL11       0.1004
     13 C           7.9429    1.0701    1.3705 C.ar    1  UNL11      -0.0441
     14 C           7.7231    2.0894    2.2837 C.ar    1  UNL11      -0.0608
     15 C           6.4834    2.2983    2.8177 C.ar    1  UNL11      -0.0611
     16 C           5.4115    1.4879    2.4530 C.ar    1  UNL11      -0.0518
     17 C           5.6411    0.4816    1.5451 C.ar    1  UNL11       0.0192
     18 C           2.8227    2.0595    0.4952 C.ar    1  UNL11      -0.0555
     19 C           2.0802    2.8760   -0.3729 C.ar    1  UNL11      -0.0254
     20 C           0.9912    2.3572   -1.0278 C.ar    1  UNL11       0.1355
     21 F           0.2435    3.1095   -1.8768 F       1  UNL11      -0.2047
     22 N          -0.3723   -0.9805   -1.7019 N.am    1  UNL11      -0.2959
     23 C          -1.2539   -1.9636   -2.2959 C.3     1  UNL11       0.0276
     24 C          -0.5340   -3.0369   -1.5402 C.3     1  UNL11       0.0671
     25 C          -0.2497   -4.2175   -2.3566 C.2     1  UNL11       0.2217
     26 O          -0.7217   -5.3738   -2.0271 O.2     1  UNL11      -0.2752
     27 N           0.5478   -4.1167   -3.5212 N.am    1  UNL11      -0.3012
     28 C           1.1988   -2.9804   -4.1016 C.3     1  UNL11       0.0147
     29 C           2.5551   -3.5447   -4.4987 C.3     1  UNL11      -0.0357
     30 C           2.3254   -5.0253   -4.6954 C.3     1  UNL11      -0.0357
     31 C           0.8619   -5.2516   -4.4090 C.3     1  UNL11       0.0147
     32 C           0.5995   -2.0228   -1.4929 C.3     1  UNL11       0.0276
     33 H           1.1394   -0.7699    0.2104 H       1  UNL11       0.0629
     34 H           2.7431   -1.2046    1.5971 H       1  UNL11       0.0379
     35 H           3.1155    0.1114    2.6907 H       1  UNL11       0.0379
     36 H           6.2074   -2.3532   -0.9047 H       1  UNL11       0.4829
     37 H           8.9047    0.8765    0.9303 H       1  UNL11       0.0627
     38 H           8.5784    2.7087    2.5514 H       1  UNL11       0.0618
     39 H           6.3407    3.0960    3.5263 H       1  UNL11       0.0618
     40 H           4.4304    1.6267    2.8810 H       1  UNL11       0.0624
     41 H           3.6592    2.5256    0.9888 H       1  UNL11       0.0621
     42 H           2.3789    3.9139   -0.5171 H       1  UNL11       0.0646
     43 H          -2.3277   -1.8087   -2.0634 H       1  UNL11       0.0472
     44 H          -1.0349   -1.9962   -3.3988 H       1  UNL11       0.0472
     45 H          -0.9928   -3.2358   -0.5451 H       1  UNL11       0.0425
     46 H           0.6475   -2.6051   -4.9961 H       1  UNL11       0.0464
     47 H           1.3558   -2.1224   -3.4543 H       1  UNL11       0.0464
     48 H           3.2597   -3.3649   -3.6560 H       1  UNL11       0.0281
     49 H           2.9104   -3.0520   -5.4260 H       1  UNL11       0.0281
     50 H           2.6024   -5.3483   -5.7234 H       1  UNL11       0.0281
     51 H           2.9038   -5.6076   -3.9288 H       1  UNL11       0.0281
     52 H           0.2108   -5.1484   -5.2842 H       1  UNL11       0.0464
     53 H           0.7022   -6.2097   -3.8650 H       1  UNL11       0.0464
     54 H           1.2609   -2.2002   -2.3906 H       1  UNL11       0.0472
     55 H           1.1490   -1.9897   -0.5290 H       1  UNL11       0.0472
@<TRIPOS>BOND
     1     1     2    2
     2     2     3    1
     3     2    22   am
     4     3     4   ar
     5     4     5   ar
     6     4    33    1
     7     5     6    1
     8     5    18   ar
     9     6     7    1
    10     6    34    1
    11     6    35    1
    12     7     8    2
    13     8     9    1
    14     9    10   am
    15     9    36    1
    16    10    11    2
    17    10    12    1
    18    12    13   ar
    19    13    14   ar
    20    13    37    1
    21    14    15   ar
    22    14    38    1
    23    15    16   ar
    24    15    39    1
    25    16    17   ar
    26    16    40    1
    27    17     7    1
    28    17    12   ar
    29    18    19   ar
    30    18    41    1
    31    19    20   ar
    32    19    42    1
    33    20    21    1
    34    20     3   ar
    35    22    23    1
    36    23    24    1
    37    23    43    1
    38    23    44    1
    39    24    25    1
    40    24    32    1
    41    24    45    1
    42    25    26    2
    43    25    27   am
    44    27    28    1
    45    28    29    1
    46    28    46    1
    47    28    47    1
    48    29    30    1
    49    29    48    1
    50    29    49    1
    51    30    31    1
    52    30    50    1
    53    30    51    1
    54    31    27    1
    55    31    52    1
    56    31    53    1
    57    32    22    1
    58    32    54    1
    59    32    55    1
@<TRIPOS>MOLECULE
*****
 55 59 0 0 0
SMALL
GASTEIGER

@<TRIPOS>ATOM
      1 O          -0.9176    0.7462   -2.5912 O.2     1  UNL11      -0.2699
      2 C          -0.5029    0.4217   -1.4654 C.2     1  UNL11       0.2494
      3 C           0.6491    1.0612   -0.8254 C.ar    1  UNL11       0.0723
      4 C           1.3856    0.2663    0.0291 C.ar    1  UNL11      -0.0433
      5 C           2.5072    0.7531    0.7212 C.ar    1  UNL11      -0.0405
      6 C           3.2107   -0.1755    1.6219 C.3     1  UNL11       0.0211
      7 C           3.8147    0.5675    2.7371 C.2     1  UNL11       0.1192
      8 N           3.6258    1.9134    2.7387 N.2     1  UNL11      -0.0073
      9 N           4.0514    2.6898    3.7042 N.am    1  UNL11      -0.0356
     10 C           4.7092    2.1966    4.7657 C.2     1  UNL11       0.4383
     11 O           5.1180    2.9272    5.6914 O.2     1  UNL11      -0.2116
     12 C           4.9236    0.8343    4.8022 C.ar    1  UNL11       0.1004
     13 C           5.6186    0.2615    5.8668 C.ar    1  UNL11      -0.0441
     14 C           5.8441   -1.1061    5.8797 C.ar    1  UNL11      -0.0608
     15 C           5.3956   -1.9011    4.8636 C.ar    1  UNL11      -0.0611
     16 C           4.6995   -1.3507    3.7907 C.ar    1  UNL11      -0.0518
     17 C           4.4802    0.0063    3.7899 C.ar    1  UNL11       0.0192
     18 C           2.8227    2.0595    0.4952 C.ar    1  UNL11      -0.0555
     19 C           2.0802    2.8760   -0.3729 C.ar    1  UNL11      -0.0254
     20 C           0.9912    2.3572   -1.0278 C.ar    1  UNL11       0.1355
     21 F           0.2435    3.1095   -1.8768 F       1  UNL11      -0.2047
     22 N          -1.1294   -0.6130   -0.7064 N.am    1  UNL11      -0.2959
     23 C          -0.8651   -1.1683    0.6045 C.3     1  UNL11       0.0276
     24 C          -1.5531   -2.4306    0.1869 C.3     1  UNL11       0.0671
     25 C          -2.4571   -2.9540    1.2116 C.2     1  UNL11       0.2217
     26 O          -3.1168   -4.0461    1.0104 O.2     1  UNL11      -0.2752
     27 N          -2.6275   -2.2747    2.4412 N.am    1  UNL11      -0.3012
     28 C          -2.0409   -1.0569    2.9148 C.3     1  UNL11       0.0147
     29 C          -3.2204   -0.3574    3.5745 C.3     1  UNL11      -0.0357
     30 C          -4.1663   -1.4668    3.9721 C.3     1  UNL11      -0.0357
     31 C          -3.5002   -2.7466    3.5324 C.3     1  UNL11       0.0147
     32 C          -2.2275   -1.5352   -0.8422 C.3     1  UNL11       0.0276
     33 H           1.1394   -0.7699    0.2104 H       1  UNL11       0.0629
     34 H           4.0559   -0.7037    1.0882 H       1  UNL11       0.0379
     35 H           2.5672   -1.0172    1.9554 H       1  UNL11       0.0379
     36 H           3.8901    3.7478    3.6840 H       1  UNL11       0.4829
     37 H           5.9571    0.9174    6.6487 H       1  UNL11       0.0627
     38 H           6.3906   -1.5109    6.7307 H       1  UNL11       0.0618
     39 H           5.5859   -2.9601    4.8976 H       1  UNL11       0.0618
     40 H           4.3562   -1.9620    2.9700 H       1  UNL11       0.0624
     41 H           3.6592    2.5256    0.9888 H       1  UNL11       0.0621
     42 H           2.3789    3.9139   -0.5171 H       1  UNL11       0.0646
     43 H           0.2127   -1.2351    0.8594 H       1  UNL11       0.0472
     44 H          -1.4661   -0.5801    1.3516 H       1  UNL11       0.0472
     45 H          -0.8499   -3.1689   -0.2608 H       1  UNL11       0.0425
     46 H          -1.2307   -1.2538    3.6563 H       1  UNL11       0.0464
     47 H          -1.6182   -0.3933    2.1659 H       1  UNL11       0.0464
     48 H          -3.6910    0.3072    2.8157 H       1  UNL11       0.0281
     49 H          -2.8703    0.2247    4.4505 H       1  UNL11       0.0281
     50 H          -4.3686   -1.4582    5.0660 H       1  UNL11       0.0281
     51 H          -5.1242   -1.3793    3.3923 H       1  UNL11       0.0281
     52 H          -2.8400   -3.1920    4.2850 H       1  UNL11       0.0464
     53 H          -4.2451   -3.4704    3.1316 H       1  UNL11       0.0464
     54 H          -3.1885   -1.1512   -0.3908 H       1  UNL11       0.0472
     55 H          -2.3540   -1.9972   -1.8435 H       1  UNL11       0.0472
@<TRIPOS>BOND
     1     1     2    2
     2     2     3    1
     3     2    22   am
     4     3     4   ar
     5     4     5   ar
     6     4    33    1
     7     5     6    1
     8     5    18   ar
     9     6     7    1
    10     6    34    1
    11     6    35    1
    12     7     8    2
    13     8     9    1
    14     9    10   am
    15     9    36    1
    16    10    11    2
    17    10    12    1
    18    12    13   ar
    19    13    14   ar
    20    13    37    1
    21    14    15   ar
    22    14    38    1
    23    15    16   ar
    24    15    39    1
    25    16    17   ar
    26    16    40    1
    27    17     7    1
    28    17    12   ar
    29    18    19   ar
    30    18    41    1
    31    19    20   ar
    32    19    42    1
    33    20    21    1
    34    20     3   ar
    35    22    23    1
    36    23    24    1
    37    23    43    1
    38    23    44    1
    39    24    25    1
    40    24    32    1
    41    24    45    1
    42    25    26    2
    43    25    27   am
    44    27    28    1
    45    28    29    1
    46    28    46    1
    47    28    47    1
    48    29    30    1
    49    29    48    1
    50    29    49    1
    51    30    31    1
    52    30    50    1
    53    30    51    1
    54    31    27    1
    55    31    52    1
    56    31    53    1
    57    32    22    1
    58    32    54    1
    59    32    55    1
@<TRIPOS>MOLECULE
*****
 55 59 0 0 0
SMALL
GASTEIGER

@<TRIPOS>ATOM
      1 O          -0.9176    0.7462   -2.5912 O.2     1  UNL11      -0.2699
      2 C          -0.5029    0.4217   -1.4654 C.2     1  UNL11       0.2494
      3 C           0.6491    1.0612   -0.8254 C.ar    1  UNL11       0.0723
      4 C           1.3856    0.2663    0.0291 C.ar    1  UNL11      -0.0433
      5 C           2.5072    0.7531    0.7212 C.ar    1  UNL11      -0.0405
      6 C           3.2107   -0.1755    1.6219 C.3     1  UNL11       0.0211
      7 C           3.7214   -1.3239    0.8599 C.2     1  UNL11       0.1192
      8 N           3.4661   -1.3247   -0.4750 N.2     1  UNL11      -0.0073
      9 N           3.9173   -2.2507   -1.2846 N.am    1  UNL11      -0.0356
     10 C           4.6698   -3.2694   -0.8388 C.2     1  UNL11       0.4383
     11 O           5.1055   -4.1561   -1.6015 O.2     1  UNL11      -0.2116
     12 C           4.9509   -3.3069    0.5113 C.ar    1  UNL11       0.1004
     13 C           5.7099   -4.3499    1.0414 C.ar    1  UNL11      -0.0441
     14 C           5.9671   -4.3852    2.4029 C.ar    1  UNL11      -0.0608
     15 C           5.4870   -3.4130    3.2335 C.ar    1  UNL11      -0.0611
     16 C           4.7270   -2.3625    2.7261 C.ar    1  UNL11      -0.0518
     17 C           4.4801   -2.3370    1.3741 C.ar    1  UNL11       0.0192
     18 C           2.8227    2.0595    0.4952 C.ar    1  UNL11      -0.0555
     19 C           2.0802    2.8760   -0.3729 C.ar    1  UNL11      -0.0254
     20 C           0.9912    2.3572   -1.0278 C.ar    1  UNL11       0.1355
     21 F           0.2435    3.1095   -1.8768 F       1  UNL11      -0.2047
     22 N          -1.1294   -0.6130   -0.7064 N.am    1  UNL11      -0.2959
     23 C          -0.8651   -1.1683    0.6045 C.3     1  UNL11       0.0276
     24 C          -1.5531   -2.4306    0.1869 C.3     1  UNL11       0.0671
     25 C          -2.4571   -2.9540    1.2116 C.2     1  UNL11       0.2217
     26 O          -2.2216   -2.7460    2.4644 O.2     1  UNL11      -0.2752
     27 N          -3.6052   -3.6987    0.8512 N.am    1  UNL11      -0.3012
     28 C          -4.0912   -4.0833   -0.4401 C.3     1  UNL11       0.0147
     29 C          -4.5224   -5.5251   -0.2142 C.3     1  UNL11      -0.0357
     30 C          -4.8352   -5.6179    1.2613 C.3     1  UNL11      -0.0357
     31 C          -4.5766   -4.2407    1.8195 C.3     1  UNL11       0.0147
     32 C          -2.2275   -1.5352   -0.8422 C.3     1  UNL11       0.0276
     33 H           1.1394   -0.7699    0.2104 H       1  UNL11       0.0629
     34 H           2.5133   -0.5919    2.4083 H       1  UNL11       0.0379
     35 H           3.9924    0.3282    2.2293 H       1  UNL11       0.0379
     36 H           3.7037   -2.2299   -2.3332 H       1  UNL11       0.4829
     37 H           6.0712   -5.0976    0.3583 H       1  UNL11       0.0627
     38 H           6.5644   -5.2174    2.7736 H       1  UNL11       0.0618
     39 H           5.7000   -3.4655    4.2874 H       1  UNL11       0.0618
     40 H           4.3231   -1.5975    3.3716 H       1  UNL11       0.0624
     41 H           3.6592    2.5256    0.9888 H       1  UNL11       0.0621
     42 H           2.3789    3.9139   -0.5171 H       1  UNL11       0.0646
     43 H           0.2127   -1.2351    0.8594 H       1  UNL11       0.0472
     44 H          -1.4661   -0.5801    1.3516 H       1  UNL11       0.0472
     45 H          -0.8499   -3.1689   -0.2608 H       1  UNL11       0.0425
     46 H          -4.9573   -3.4546   -0.7558 H       1  UNL11       0.0464
     47 H          -3.3780   -4.0585   -1.2591 H       1  UNL11       0.0464
     48 H          -3.6638   -6.1832   -0.4759 H       1  UNL11       0.0281
     49 H          -5.4062   -5.7559   -0.8421 H       1  UNL11       0.0281
     50 H          -5.8834   -5.9470    1.4364 H       1  UNL11       0.0281
     51 H          -4.1126   -6.3162    1.7627 H       1  UNL11       0.0281
     52 H          -5.4453   -3.5733    1.7917 H       1  UNL11       0.0464
     53 H          -4.1099   -4.2970    2.8286 H       1  UNL11       0.0464
     54 H          -3.1885   -1.1512   -0.3908 H       1  UNL11       0.0472
     55 H          -2.3540   -1.9972   -1.8435 H       1  UNL11       0.0472
@<TRIPOS>BOND
     1     1     2    2
     2     2     3    1
     3     2    22   am
     4     3     4   ar
     5     4     5   ar
     6     4    33    1
     7     5     6    1
     8     5    18   ar
     9     6     7    1
    10     6    34    1
    11     6    35    1
    12     7     8    2
    13     8     9    1
    14     9    10   am
    15     9    36    1
    16    10    11    2
    17    10    12    1
    18    12    13   ar
    19    13    14   ar
    20    13    37    1
    21    14    15   ar
    22    14    38    1
    23    15    16   ar
    24    15    39    1
    25    16    17   ar
    26    16    40    1
    27    17     7    1
    28    17    12   ar
    29    18    19   ar
    30    18    41    1
    31    19    20   ar
    32    19    42    1
    33    20    21    1
    34    20     3   ar
    35    22    23    1
    36    23    24    1
    37    23    43    1
    38    23    44    1
    39    24    25    1
    40    24    32    1
    41    24    45    1
    42    25    26    2
    43    25    27   am
    44    27    28    1
    45    28    29    1
    46    28    46    1
    47    28    47    1
    48    29    30    1
    49    29    48    1
    50    29    49    1
    51    30    31    1
    52    30    50    1
    53    30    51    1
    54    31    27    1
    55    31    52    1
    56    31    53    1
    57    32    22    1
    58    32    54    1
    59    32    55    1
@<TRIPOS>MOLECULE
*****
 55 59 0 0 0
SMALL
GASTEIGER

@<TRIPOS>ATOM
      1 O          -0.9176    0.7462   -2.5912 O.2     1  UNL11      -0.2699
      2 C          -0.5029    0.4217   -1.4654 C.2     1  UNL11       0.2494
      3 C           0.6491    1.0612   -0.8254 C.ar    1  UNL11       0.0723
      4 C           1.3856    0.2663    0.0291 C.ar    1  UNL11      -0.0433
      5 C           2.5072    0.7531    0.7212 C.ar    1  UNL11      -0.0405
      6 C           3.2107   -0.1755    1.6219 C.3     1  UNL11       0.0211
      7 C           3.7214   -1.3239    0.8599 C.2     1  UNL11       0.1192
      8 N           3.4661   -1.3247   -0.4750 N.2     1  UNL11      -0.0073
      9 N           3.9173   -2.2507   -1.2846 N.am    1  UNL11      -0.0356
     10 C           4.6698   -3.2694   -0.8388 C.2     1  UNL11       0.4383
     11 O           5.1055   -4.1561   -1.6015 O.2     1  UNL11      -0.2116
     12 C           4.9509   -3.3069    0.5113 C.ar    1  UNL11       0.1004
     13 C           5.7099   -4.3499    1.0414 C.ar    1  UNL11      -0.0441
     14 C           5.9671   -4.3852    2.4029 C.ar    1  UNL11      -0.0608
     15 C           5.4870   -3.4130    3.2335 C.ar    1  UNL11      -0.0611
     16 C           4.7270   -2.3625    2.7261 C.ar    1  UNL11      -0.0518
     17 C           4.4801   -2.3370    1.3741 C.ar    1  UNL11       0.0192
     18 C           2.8227    2.0595    0.4952 C.ar    1  UNL11      -0.0555
     19 C           2.0802    2.8760   -0.3729 C.ar    1  UNL11      -0.0254
     20 C           0.9912    2.3572   -1.0278 C.ar    1  UNL11       0.1355
     21 F           0.2435    3.1095   -1.8768 F       1  UNL11      -0.2047
     22 N          -1.1294   -0.6130   -0.7064 N.am    1  UNL11      -0.2959
     23 C          -0.8651   -1.1683    0.6045 C.3     1  UNL11       0.0276
     24 C          -1.5531   -2.4306    0.1869 C.3     1  UNL11       0.0671
     25 C          -2.4571   -2.9540    1.2116 C.2     1  UNL11       0.2217
     26 O          -3.1168   -4.0461    1.0104 O.2     1  UNL11      -0.2752
     27 N          -2.6275   -2.2747    2.4412 N.am    1  UNL11      -0.3012
     28 C          -2.0409   -1.0569    2.9148 C.3     1  UNL11       0.0147
     29 C          -3.2204   -0.3574    3.5745 C.3     1  UNL11      -0.0357
     30 C          -4.1663   -1.4668    3.9721 C.3     1  UNL11      -0.0357
     31 C          -3.5002   -2.7466    3.5324 C.3     1  UNL11       0.0147
     32 C          -2.2275   -1.5352   -0.8422 C.3     1  UNL11       0.0276
     33 H           1.1394   -0.7699    0.2104 H       1  UNL11       0.0629
     34 H           2.5133   -0.5919    2.4083 H       1  UNL11       0.0379
     35 H           3.9924    0.3282    2.2293 H       1  UNL11       0.0379
     36 H           3.7037   -2.2299   -2.3332 H       1  UNL11       0.4829
     37 H           6.0712   -5.0976    0.3583 H       1  UNL11       0.0627
     38 H           6.5644   -5.2174    2.7736 H       1  UNL11       0.0618
     39 H           5.7000   -3.4655    4.2874 H       1  UNL11       0.0618
     40 H           4.3231   -1.5975    3.3716 H       1  UNL11       0.0624
     41 H           3.6592    2.5256    0.9888 H       1  UNL11       0.0621
     42 H           2.3789    3.9139   -0.5171 H       1  UNL11       0.0646
     43 H           0.2127   -1.2351    0.8594 H       1  UNL11       0.0472
     44 H          -1.4661   -0.5801    1.3516 H       1  UNL11       0.0472
     45 H          -0.8499   -3.1689   -0.2608 H       1  UNL11       0.0425
     46 H          -1.2307   -1.2538    3.6563 H       1  UNL11       0.0464
     47 H          -1.6182   -0.3933    2.1659 H       1  UNL11       0.0464
     48 H          -3.6910    0.3072    2.8157 H       1  UNL11       0.0281
     49 H          -2.8703    0.2247    4.4505 H       1  UNL11       0.0281
     50 H          -4.3686   -1.4582    5.0660 H       1  UNL11       0.0281
     51 H          -5.1242   -1.3793    3.3923 H       1  UNL11       0.0281
     52 H          -2.8400   -3.1920    4.2850 H       1  UNL11       0.0464
     53 H          -4.2451   -3.4704    3.1316 H       1  UNL11       0.0464
     54 H          -3.1885   -1.1512   -0.3908 H       1  UNL11       0.0472
     55 H          -2.3540   -1.9972   -1.8435 H       1  UNL11       0.0472
@<TRIPOS>BOND
     1     1     2    2
     2     2     3    1
     3     2    22   am
     4     3     4   ar
     5     4     5   ar
     6     4    33    1
     7     5     6    1
     8     5    18   ar
     9     6     7    1
    10     6    34    1
    11     6    35    1
    12     7     8    2
    13     8     9    1
    14     9    10   am
    15     9    36    1
    16    10    11    2
    17    10    12    1
    18    12    13   ar
    19    13    14   ar
    20    13    37    1
    21    14    15   ar
    22    14    38    1
    23    15    16   ar
    24    15    39    1
    25    16    17   ar
    26    16    40    1
    27    17     7    1
    28    17    12   ar
    29    18    19   ar
    30    18    41    1
    31    19    20   ar
    32    19    42    1
    33    20    21    1
    34    20     3   ar
    35    22    23    1
    36    23    24    1
    37    23    43    1
    38    23    44    1
    39    24    25    1
    40    24    32    1
    41    24    45    1
    42    25    26    2
    43    25    27   am
    44    27    28    1
    45    28    29    1
    46    28    46    1
    47    28    47    1
    48    29    30    1
    49    29    48    1
    50    29    49    1
    51    30    31    1
    52    30    50    1
    53    30    51    1
    54    31    27    1
    55    31    52    1
    56    31    53    1
    57    32    22    1
    58    32    54    1
    59    32    55    1
@<TRIPOS>MOLECULE
*****
 55 59 0 0 0
SMALL
GASTEIGER

@<TRIPOS>ATOM
      1 O          -1.5298    1.0438   -1.7867 O.2     1  UNL11      -0.2699
      2 C          -0.5029    0.4217   -1.4654 C.2     1  UNL11       0.2494
      3 C           0.6491    1.0612   -0.8254 C.ar    1  UNL11       0.0723
      4 C           1.3856    0.2663    0.0291 C.ar    1  UNL11      -0.0433
      5 C           2.5072    0.7531    0.7212 C.ar    1  UNL11      -0.0405
      6 C           3.2107   -0.1755    1.6219 C.3     1  UNL11       0.0211
      7 C           4.3396    0.5096    2.2673 C.2     1  UNL11       0.1192
      8 N           5.4122   -0.2620    2.5858 N.2     1  UNL11      -0.0073
      9 N           6.5113    0.2276    3.1040 N.am    1  UNL11      -0.0356
     10 C           6.6472    1.5394    3.3556 C.2     1  UNL11       0.4383
     11 O           7.6902    2.0163    3.8481 O.2     1  UNL11      -0.2116
     12 C           5.5802    2.3580    3.0484 C.ar    1  UNL11       0.1004
     13 C           5.6493    3.7271    3.3045 C.ar    1  UNL11      -0.0441
     14 C           4.5617    4.5340    3.0094 C.ar    1  UNL11      -0.0608
     15 C           3.4221    4.0071    2.4715 C.ar    1  UNL11      -0.0611
     16 C           3.3308    2.6430    2.2076 C.ar    1  UNL11      -0.0518
     17 C           4.4165    1.8531    2.5026 C.ar    1  UNL11       0.0192
     18 C           2.8227    2.0595    0.4952 C.ar    1  UNL11      -0.0555
     19 C           2.0802    2.8760   -0.3729 C.ar    1  UNL11      -0.0254
     20 C           0.9912    2.3572   -1.0278 C.ar    1  UNL11       0.1355
     21 F           0.2435    3.1095   -1.8768 F       1  UNL11      -0.2047
     22 N          -0.3723   -0.9805   -1.7019 N.am    1  UNL11      -0.2959
     23 C           0.6839   -1.9306   -1.4219 C.3     1  UNL11       0.0276
     24 C           0.1573   -2.8082   -2.5145 C.3     1  UNL11       0.0671
     25 C           0.1070   -4.2212   -2.1377 C.2     1  UNL11       0.2217
     26 O           0.7750   -5.1034   -2.8039 O.2     1  UNL11      -0.2752
     27 N          -0.6742   -4.6493   -1.0382 N.am    1  UNL11      -0.3012
     28 C          -1.5101   -3.8994   -0.1490 C.3     1  UNL11       0.0147
     29 C          -2.7339   -4.7938   -0.0141 C.3     1  UNL11      -0.0357
     30 C          -2.2356   -6.1918   -0.2984 C.3     1  UNL11      -0.0357
     31 C          -0.7608   -6.0486   -0.5804 C.3     1  UNL11       0.0147
     32 C          -1.1423   -2.0525   -2.2785 C.3     1  UNL11       0.0276
     33 H           1.1394   -0.7699    0.2104 H       1  UNL11       0.0629
     34 H           3.6447   -1.0503    1.0521 H       1  UNL11       0.0379
     35 H           2.5276   -0.6688    2.3455 H       1  UNL11       0.0379
     36 H           7.3439   -0.4001    3.3460 H       1  UNL11       0.4829
     37 H           6.5615    4.1071    3.7284 H       1  UNL11       0.0627
     38 H           4.6595    5.5973    3.2252 H       1  UNL11       0.0618
     39 H           2.5914    4.6560    2.2535 H       1  UNL11       0.0618
     40 H           2.4303    2.2077    1.8018 H       1  UNL11       0.0624
     41 H           3.6592    2.5256    0.9888 H       1  UNL11       0.0621
     42 H           2.3789    3.9139   -0.5171 H       1  UNL11       0.0646
     43 H           1.7072   -1.5202   -1.5459 H       1  UNL11       0.0472
     44 H           0.4945   -2.3596   -0.3994 H       1  UNL11       0.0472
     45 H           0.6263   -2.5866   -3.4999 H       1  UNL11       0.0425
     46 H          -1.0200   -3.7451    0.8414 H       1  UNL11       0.0464
     47 H          -1.8321   -2.9194   -0.4893 H       1  UNL11       0.0464
     48 H          -3.4747   -4.4769   -0.7821 H       1  UNL11       0.0281
     49 H          -3.1558   -4.7021    1.0069 H       1  UNL11       0.0281
     50 H          -2.4305   -6.8764    0.5567 H       1  UNL11       0.0281
     51 H          -2.7124   -6.5849   -1.2361 H       1  UNL11       0.0281
     52 H          -0.1234   -6.1227    0.3078 H       1  UNL11       0.0464
     53 H          -0.4396   -6.7321   -1.3983 H       1  UNL11       0.0464
     54 H          -1.7440   -2.6277   -1.5156 H       1  UNL11       0.0472
     55 H          -1.7061   -1.8048   -3.2020 H       1  UNL11       0.0472
@<TRIPOS>BOND
     1     1     2    2
     2     2     3    1
     3     2    22   am
     4     3     4   ar
     5     4     5   ar
     6     4    33    1
     7     5     6    1
     8     5    18   ar
     9     6     7    1
    10     6    34    1
    11     6    35    1
    12     7     8    2
    13     8     9    1
    14     9    10   am
    15     9    36    1
    16    10    11    2
    17    10    12    1
    18    12    13   ar
    19    13    14   ar
    20    13    37    1
    21    14    15   ar
    22    14    38    1
    23    15    16   ar
    24    15    39    1
    25    16    17   ar
    26    16    40    1
    27    17     7    1
    28    17    12   ar
    29    18    19   ar
    30    18    41    1
    31    19    20   ar
    32    19    42    1
    33    20    21    1
    34    20     3   ar
    35    22    23    1
    36    23    24    1
    37    23    43    1
    38    23    44    1
    39    24    25    1
    40    24    32    1
    41    24    45    1
    42    25    26    2
    43    25    27   am
    44    27    28    1
    45    28    29    1
    46    28    46    1
    47    28    47    1
    48    29    30    1
    49    29    48    1
    50    29    49    1
    51    30    31    1
    52    30    50    1
    53    30    51    1
    54    31    27    1
    55    31    52    1
    56    31    53    1
    57    32    22    1
    58    32    54    1
    59    32    55    1
@<TRIPOS>MOLECULE
*****
 55 59 0 0 0
SMALL
GASTEIGER

@<TRIPOS>ATOM
      1 O          -0.9176    0.7462   -2.5912 O.2     1  UNL11      -0.2699
      2 C          -0.5029    0.4217   -1.4654 C.2     1  UNL11       0.2494
      3 C           0.6491    1.0612   -0.8254 C.ar    1  UNL11       0.0723
      4 C           1.3856    0.2663    0.0291 C.ar    1  UNL11      -0.0433
      5 C           2.5072    0.7531    0.7212 C.ar    1  UNL11      -0.0405
      6 C           3.2107   -0.1755    1.6219 C.3     1  UNL11       0.0211
      7 C           2.6411   -0.0915    2.9743 C.2     1  UNL11       0.1192
      8 N           1.6150   -0.9386    3.2512 N.2     1  UNL11      -0.0073
      9 N           1.0576   -1.0171    4.4341 N.am    1  UNL11      -0.0356
     10 C           1.4715   -0.2552    5.4592 C.2     1  UNL11       0.4383
     11 O           0.9481   -0.3228    6.5902 O.2     1  UNL11      -0.2116
     12 C           2.5104    0.6202    5.2197 C.ar    1  UNL11       0.1004
     13 C           2.9737    1.4546    6.2366 C.ar    1  UNL11      -0.0441
     14 C           4.0047    2.3434    5.9755 C.ar    1  UNL11      -0.0608
     15 C           4.5735    2.4144    4.7357 C.ar    1  UNL11      -0.0611
     16 C           4.1268    1.5910    3.7056 C.ar    1  UNL11      -0.0518
     17 C           3.1052    0.7122    3.9768 C.ar    1  UNL11       0.0192
     18 C           2.8227    2.0595    0.4952 C.ar    1  UNL11      -0.0555
     19 C           2.0802    2.8760   -0.3729 C.ar    1  UNL11      -0.0254
     20 C           0.9912    2.3572   -1.0278 C.ar    1  UNL11       0.1355
     21 F           0.2435    3.1095   -1.8768 F       1  UNL11      -0.2047
     22 N          -1.1294   -0.6130   -0.7064 N.am    1  UNL11      -0.2959
     23 C          -2.2643   -1.4736   -0.9668 C.3     1  UNL11       0.0276
     24 C          -2.4370   -1.6594    0.5086 C.3     1  UNL11       0.0671
     25 C          -2.6973   -3.0500    0.8825 C.2     1  UNL11       0.2217
     26 O          -2.3100   -3.5066    2.0269 O.2     1  UNL11      -0.2752
     27 N          -3.3767   -3.9216   -0.0014 N.am    1  UNL11      -0.3012
     28 C          -3.8960   -3.6868   -1.3155 C.3     1  UNL11       0.0147
     29 C          -3.4940   -4.9517   -2.0598 C.3     1  UNL11      -0.0357
     30 C          -3.3659   -6.0145   -0.9932 C.3     1  UNL11      -0.0357
     31 C          -3.6976   -5.3274    0.3079 C.3     1  UNL11       0.0147
     32 C          -0.9697   -1.2607    0.5702 C.3     1  UNL11       0.0276
     33 H           1.1394   -0.7699    0.2104 H       1  UNL11       0.0629
     34 H           4.3054    0.0919    1.7135 H       1  UNL11       0.0379
     35 H           3.2439   -1.2125    1.2255 H       1  UNL11       0.0379
     36 H           0.2506   -1.6930    4.6288 H       1  UNL11       0.4829
     37 H           2.5027    1.3718    7.1996 H       1  UNL11       0.0627
     38 H           4.3354    2.9755    6.7988 H       1  UNL11       0.0618
     39 H           5.3715    3.1149    4.5595 H       1  UNL11       0.0618
     40 H           4.5515    1.6489    2.7149 H       1  UNL11       0.0624
     41 H           3.6592    2.5256    0.9888 H       1  UNL11       0.0621
     42 H           2.3789    3.9139   -0.5171 H       1  UNL11       0.0646
     43 H          -3.0904   -0.9797   -1.5188 H       1  UNL11       0.0472
     44 H          -1.8797   -2.4017   -1.4730 H       1  UNL11       0.0472
     45 H          -3.1212   -0.9023    0.9544 H       1  UNL11       0.0425
     46 H          -5.0055   -3.5693   -1.3026 H       1  UNL11       0.0464
     47 H          -3.5018   -2.8283   -1.8517 H       1  UNL11       0.0464
     48 H          -2.5111   -4.7634   -2.5469 H       1  UNL11       0.0281
     49 H          -4.2676   -5.2077   -2.8113 H       1  UNL11       0.0281
     50 H          -4.0413   -6.8759   -1.1922 H       1  UNL11       0.0281
     51 H          -2.2989   -6.3574   -0.9206 H       1  UNL11       0.0281
     52 H          -4.7611   -5.3506    0.5707 H       1  UNL11       0.0464
     53 H          -3.0431   -5.6897    1.1322 H       1  UNL11       0.0464
     54 H          -0.3517   -2.2039    0.5156 H       1  UNL11       0.0472
     55 H          -0.7067   -0.5993    1.4220 H       1  UNL11       0.0472
@<TRIPOS>BOND
     1     1     2    2
     2     2     3    1
     3     2    22   am
     4     3     4   ar
     5     4     5   ar
     6     4    33    1
     7     5     6    1
     8     5    18   ar
     9     6     7    1
    10     6    34    1
    11     6    35    1
    12     7     8    2
    13     8     9    1
    14     9    10   am
    15     9    36    1
    16    10    11    2
    17    10    12    1
    18    12    13   ar
    19    13    14   ar
    20    13    37    1
    21    14    15   ar
    22    14    38    1
    23    15    16   ar
    24    15    39    1
    25    16    17   ar
    26    16    40    1
    27    17     7    1
    28    17    12   ar
    29    18    19   ar
    30    18    41    1
    31    19    20   ar
    32    19    42    1
    33    20    21    1
    34    20     3   ar
    35    22    23    1
    36    23    24    1
    37    23    43    1
    38    23    44    1
    39    24    25    1
    40    24    32    1
    41    24    45    1
    42    25    26    2
    43    25    27   am
    44    27    28    1
    45    28    29    1
    46    28    46    1
    47    28    47    1
    48    29    30    1
    49    29    48    1
    50    29    49    1
    51    30    31    1
    52    30    50    1
    53    30    51    1
    54    31    27    1
    55    31    52    1
    56    31    53    1
    57    32    22    1
    58    32    54    1
    59    32    55    1
@<TRIPOS>MOLECULE
*****
 55 59 0 0 0
SMALL
GASTEIGER

@<TRIPOS>ATOM
      1 O          -0.9176    0.7462   -2.5912 O.2     1  UNL11      -0.2699
      2 C          -0.5029    0.4217   -1.4654 C.2     1  UNL11       0.2494
      3 C           0.6491    1.0612   -0.8254 C.ar    1  UNL11       0.0723
      4 C           1.3856    0.2663    0.0291 C.ar    1  UNL11      -0.0433
      5 C           2.5072    0.7531    0.7212 C.ar    1  UNL11      -0.0405
      6 C           3.2107   -0.1755    1.6219 C.3     1  UNL11       0.0211
      7 C           2.6411   -0.0915    2.9743 C.2     1  UNL11       0.1192
      8 N           3.4918   -0.3408    4.0045 N.2     1  UNL11      -0.0073
      9 N           3.1360   -0.2372    5.2611 N.am    1  UNL11      -0.0356
     10 C           1.8923    0.1265    5.6127 C.2     1  UNL11       0.4383
     11 O           1.5434    0.2292    6.8067 O.2     1  UNL11      -0.2116
     12 C           0.9965    0.3872    4.5966 C.ar    1  UNL11       0.1004
     13 C          -0.3168    0.7493    4.8945 C.ar    1  UNL11      -0.0441
     14 C          -1.2112    0.9883    3.8629 C.ar    1  UNL11      -0.0608
     15 C          -0.8246    0.8736    2.5579 C.ar    1  UNL11      -0.0611
     16 C           0.4815    0.5131    2.2372 C.ar    1  UNL11      -0.0518
     17 C           1.3600    0.2806    3.2686 C.ar    1  UNL11       0.0192
     18 C           2.8227    2.0595    0.4952 C.ar    1  UNL11      -0.0555
     19 C           2.0802    2.8760   -0.3729 C.ar    1  UNL11      -0.0254
     20 C           0.9912    2.3572   -1.0278 C.ar    1  UNL11       0.1355
     21 F           0.2435    3.1095   -1.8768 F       1  UNL11      -0.2047
     22 N          -1.1294   -0.6130   -0.7064 N.am    1  UNL11      -0.2959
     23 C          -2.2643   -1.4736   -0.9668 C.3     1  UNL11       0.0276
     24 C          -2.4370   -1.6594    0.5086 C.3     1  UNL11       0.0671
     25 C          -2.6973   -3.0500    0.8825 C.2     1  UNL11       0.2217
     26 O          -3.7255   -3.6753    0.4133 O.2     1  UNL11      -0.2752
     27 N          -1.8300   -3.7363    1.7652 N.am    1  UNL11      -0.3012
     28 C          -1.8881   -5.0782    2.2627 C.3     1  UNL11       0.0147
     29 C          -0.4366   -5.5263    2.1729 C.3     1  UNL11      -0.0357
     30 C           0.3756   -4.2541    2.2467 C.3     1  UNL11      -0.0357
     31 C          -0.6293   -3.1368    2.3768 C.3     1  UNL11       0.0147
     32 C          -0.9697   -1.2607    0.5702 C.3     1  UNL11       0.0276
     33 H           1.1394   -0.7699    0.2104 H       1  UNL11       0.0629
     34 H           4.3054    0.0919    1.7135 H       1  UNL11       0.0379
     35 H           3.2439   -1.2125    1.2255 H       1  UNL11       0.0379
     36 H           3.8242   -0.4381    6.0560 H       1  UNL11       0.4829
     37 H          -0.5861    0.8298    5.9323 H       1  UNL11       0.0627
     38 H          -2.2263    1.2691    4.1412 H       1  UNL11       0.0618
     39 H          -1.5399    1.0631    1.7761 H       1  UNL11       0.0618
     40 H           0.7975    0.3982    1.2115 H       1  UNL11       0.0624
     41 H           3.6592    2.5256    0.9888 H       1  UNL11       0.0621
     42 H           2.3789    3.9139   -0.5171 H       1  UNL11       0.0646
     43 H          -3.0904   -0.9797   -1.5188 H       1  UNL11       0.0472
     44 H          -1.8797   -2.4017   -1.4730 H       1  UNL11       0.0472
     45 H          -3.1212   -0.9023    0.9544 H       1  UNL11       0.0425
     46 H          -2.2484   -5.1084    3.3183 H       1  UNL11       0.0464
     47 H          -2.5032   -5.7802    1.7072 H       1  UNL11       0.0464
     48 H          -0.2941   -6.0269    1.1890 H       1  UNL11       0.0281
     49 H          -0.2041   -6.2173    3.0080 H       1  UNL11       0.0281
     50 H           1.0880   -4.2736    3.1010 H       1  UNL11       0.0281
     51 H           0.9227   -4.0924    1.2794 H       1  UNL11       0.0281
     52 H          -0.8989   -2.8920    3.4103 H       1  UNL11       0.0464
     53 H          -0.3154   -2.2435    1.7913 H       1  UNL11       0.0464
     54 H          -0.3517   -2.2039    0.5156 H       1  UNL11       0.0472
     55 H          -0.7067   -0.5993    1.4220 H       1  UNL11       0.0472
@<TRIPOS>BOND
     1     1     2    2
     2     2     3    1
     3     2    22   am
     4     3     4   ar
     5     4     5   ar
     6     4    33    1
     7     5     6    1
     8     5    18   ar
     9     6     7    1
    10     6    34    1
    11     6    35    1
    12     7     8    2
    13     8     9    1
    14     9    10   am
    15     9    36    1
    16    10    11    2
    17    10    12    1
    18    12    13   ar
    19    13    14   ar
    20    13    37    1
    21    14    15   ar
    22    14    38    1
    23    15    16   ar
    24    15    39    1
    25    16    17   ar
    26    16    40    1
    27    17     7    1
    28    17    12   ar
    29    18    19   ar
    30    18    41    1
    31    19    20   ar
    32    19    42    1
    33    20    21    1
    34    20     3   ar
    35    22    23    1
    36    23    24    1
    37    23    43    1
    38    23    44    1
    39    24    25    1
    40    24    32    1
    41    24    45    1
    42    25    26    2
    43    25    27   am
    44    27    28    1
    45    28    29    1
    46    28    46    1
    47    28    47    1
    48    29    30    1
    49    29    48    1
    50    29    49    1
    51    30    31    1
    52    30    50    1
    53    30    51    1
    54    31    27    1
    55    31    52    1
    56    31    53    1
    57    32    22    1
    58    32    54    1
    59    32    55    1
@<TRIPOS>MOLECULE
*****
 55 59 0 0 0
SMALL
GASTEIGER

@<TRIPOS>ATOM
      1 O          -0.5450   -0.7934   -1.7236 O.2     1  UNL11      -0.2699
      2 C          -0.5029    0.4217   -1.4654 C.2     1  UNL11       0.2494
      3 C           0.6491    1.0612   -0.8254 C.ar    1  UNL11       0.0723
      4 C           1.3856    0.2663    0.0291 C.ar    1  UNL11      -0.0433
      5 C           2.5072    0.7531    0.7212 C.ar    1  UNL11      -0.0405
      6 C           3.2107   -0.1755    1.6219 C.3     1  UNL11       0.0211
      7 C           2.2907   -0.6620    2.6598 C.2     1  UNL11       0.1192
      8 N           1.7256    0.2827    3.4570 N.2     1  UNL11      -0.0073
      9 N           0.8388   -0.0024    4.3782 N.am    1  UNL11      -0.0356
     10 C           0.4283   -1.2624    4.5939 C.2     1  UNL11       0.4383
     11 O          -0.4167   -1.5448    5.4680 O.2     1  UNL11      -0.2116
     12 C           0.9789   -2.2525    3.8067 C.ar    1  UNL11       0.1004
     13 C           0.6106   -3.5844    3.9942 C.ar    1  UNL11      -0.0441
     14 C           1.1875   -4.5705    3.2094 C.ar    1  UNL11      -0.0608
     15 C           2.1126   -4.2564    2.2548 C.ar    1  UNL11      -0.0611
     16 C           2.4953   -2.9334    2.0504 C.ar    1  UNL11      -0.0518
     17 C           1.9150   -1.9639    2.8333 C.ar    1  UNL11       0.0192
     18 C           2.8227    2.0595    0.4952 C.ar    1  UNL11      -0.0555
     19 C           2.0802    2.8760   -0.3729 C.ar    1  UNL11      -0.0254
     20 C           0.9912    2.3572   -1.0278 C.ar    1  UNL11       0.1355
     21 F           0.2435    3.1095   -1.8768 F       1  UNL11      -0.2047
     22 N          -1.5910    1.2917   -1.7786 N.am    1  UNL11      -0.2959
     23 C          -1.7940    2.7146   -1.6033 C.3     1  UNL11       0.0276
     24 C          -3.2734    2.4870   -1.6302 C.3     1  UNL11       0.0671
     25 C          -3.9871    3.4666   -2.4502 C.2     1  UNL11       0.2217
     26 O          -3.7338    3.5770   -3.7119 O.2     1  UNL11      -0.2752
     27 N          -4.9667    4.3123   -1.8779 N.am    1  UNL11      -0.3012
     28 C          -5.7769    5.3292   -2.4790 C.3     1  UNL11       0.0147
     29 C          -7.1389    5.0823   -1.8467 C.3     1  UNL11      -0.0357
     30 C          -6.8458    4.4065   -0.5272 C.3     1  UNL11      -0.0357
     31 C          -5.3436    4.2945   -0.4522 C.3     1  UNL11       0.0147
     32 C          -2.9033    1.2078   -2.3666 C.3     1  UNL11       0.0276
     33 H           1.1394   -0.7699    0.2104 H       1  UNL11       0.0629
     34 H           4.0624    0.3393    2.1584 H       1  UNL11       0.0379
     35 H           3.7246   -0.9943    1.0750 H       1  UNL11       0.0379
     36 H           0.4067    0.7592    4.9939 H       1  UNL11       0.4829
     37 H          -0.1200   -3.7948    4.7545 H       1  UNL11       0.0627
     38 H           0.8701   -5.5970    3.3894 H       1  UNL11       0.0618
     39 H           2.5464   -5.0420    1.6603 H       1  UNL11       0.0618
     40 H           3.2399   -2.6706    1.3144 H       1  UNL11       0.0624
     41 H           3.6592    2.5256    0.9888 H       1  UNL11       0.0621
     42 H           2.3789    3.9139   -0.5171 H       1  UNL11       0.0646
     43 H          -1.3577    3.1228   -0.6683 H       1  UNL11       0.0472
     44 H          -1.4231    3.2292   -2.5322 H       1  UNL11       0.0472
     45 H          -3.6938    2.3081   -0.6146 H       1  UNL11       0.0425
     46 H          -5.4032    6.3508   -2.2307 H       1  UNL11       0.0464
     47 H          -5.8843    5.2948   -3.5593 H       1  UNL11       0.0464
     48 H          -7.7089    4.4020   -2.5185 H       1  UNL11       0.0281
     49 H          -7.6709    6.0454   -1.7118 H       1  UNL11       0.0281
     50 H          -7.2627    4.9831    0.3281 H       1  UNL11       0.0281
     51 H          -7.2531    3.3599   -0.5343 H       1  UNL11       0.0281
     52 H          -4.8503    5.1578    0.0083 H       1  UNL11       0.0464
     53 H          -5.0349    3.3280    0.0061 H       1  UNL11       0.0464
     54 H          -2.9094    1.4309   -3.4734 H       1  UNL11       0.0472
     55 H          -3.5077    0.3210   -2.0832 H       1  UNL11       0.0472
@<TRIPOS>BOND
     1     1     2    2
     2     2     3    1
     3     2    22   am
     4     3     4   ar
     5     4     5   ar
     6     4    33    1
     7     5     6    1
     8     5    18   ar
     9     6     7    1
    10     6    34    1
    11     6    35    1
    12     7     8    2
    13     8     9    1
    14     9    10   am
    15     9    36    1
    16    10    11    2
    17    10    12    1
    18    12    13   ar
    19    13    14   ar
    20    13    37    1
    21    14    15   ar
    22    14    38    1
    23    15    16   ar
    24    15    39    1
    25    16    17   ar
    26    16    40    1
    27    17     7    1
    28    17    12   ar
    29    18    19   ar
    30    18    41    1
    31    19    20   ar
    32    19    42    1
    33    20    21    1
    34    20     3   ar
    35    22    23    1
    36    23    24    1
    37    23    43    1
    38    23    44    1
    39    24    25    1
    40    24    32    1
    41    24    45    1
    42    25    26    2
    43    25    27   am
    44    27    28    1
    45    28    29    1
    46    28    46    1
    47    28    47    1
    48    29    30    1
    49    29    48    1
    50    29    49    1
    51    30    31    1
    52    30    50    1
    53    30    51    1
    54    31    27    1
    55    31    52    1
    56    31    53    1
    57    32    22    1
    58    32    54    1
    59    32    55    1
@<TRIPOS>MOLECULE
*****
 55 59 0 0 0
SMALL
GASTEIGER

@<TRIPOS>ATOM
      1 O          -1.1443   -0.5020   -0.9361 O.2     1  UNL11      -0.2699
      2 C          -0.5029    0.4217   -1.4654 C.2     1  UNL11       0.2494
      3 C           0.6491    1.0612   -0.8254 C.ar    1  UNL11       0.0723
      4 C           1.3856    0.2663    0.0291 C.ar    1  UNL11      -0.0433
      5 C           2.5072    0.7531    0.7212 C.ar    1  UNL11      -0.0405
      6 C           3.2107   -0.1755    1.6219 C.3     1  UNL11       0.0211
      7 C           4.6060   -0.3353    1.1882 C.2     1  UNL11       0.1192
      8 N           5.5621    0.0242    2.0847 N.2     1  UNL11      -0.0073
      9 N           6.8433   -0.1265    1.8565 N.am    1  UNL11      -0.0356
     10 C           7.2962   -0.6525    0.7072 C.2     1  UNL11       0.4383
     11 O           8.5145   -0.8013    0.4800 O.2     1  UNL11      -0.2116
     12 C           6.3579   -1.0292   -0.2312 C.ar    1  UNL11       0.1004
     13 C           6.7634   -1.5628   -1.4542 C.ar    1  UNL11      -0.0441
     14 C           5.8098   -1.9178   -2.3954 C.ar    1  UNL11      -0.0608
     15 C           4.4778   -1.7519   -2.1424 C.ar    1  UNL11      -0.0611
     16 C           4.0503   -1.2210   -0.9283 C.ar    1  UNL11      -0.0518
     17 C           5.0050   -0.8744   -0.0020 C.ar    1  UNL11       0.0192
     18 C           2.8227    2.0595    0.4952 C.ar    1  UNL11      -0.0555
     19 C           2.0802    2.8760   -0.3729 C.ar    1  UNL11      -0.0254
     20 C           0.9912    2.3572   -1.0278 C.ar    1  UNL11       0.1355
     21 F           0.2435    3.1095   -1.8768 F       1  UNL11      -0.2047
     22 N          -0.8500    0.9320   -2.7531 N.am    1  UNL11      -0.2959
     23 C          -1.8921    0.5894   -3.6982 C.3     1  UNL11       0.0276
     24 C          -1.0556    1.1639   -4.7989 C.3     1  UNL11       0.0671
     25 C          -1.8248    1.9932   -5.7273 C.2     1  UNL11       0.2217
     26 O          -2.4393    3.0500   -5.3104 O.2     1  UNL11      -0.2752
     27 N          -1.9118    1.6538   -7.0983 N.am    1  UNL11      -0.3012
     28 C          -1.3502    0.5485   -7.8157 C.3     1  UNL11       0.0147
     29 C          -2.4967    0.1279   -8.7236 C.3     1  UNL11      -0.0357
     30 C          -3.3362    1.3716   -8.9027 C.3     1  UNL11      -0.0357
     31 C          -2.6462    2.4472   -8.1015 C.3     1  UNL11       0.0147
     32 C          -0.3899    1.9409   -3.6725 C.3     1  UNL11       0.0276
     33 H           1.1394   -0.7699    0.2104 H       1  UNL11       0.0629
     34 H           2.7431   -1.2046    1.5971 H       1  UNL11       0.0379
     35 H           3.1155    0.1114    2.6907 H       1  UNL11       0.0379
     36 H           7.5784    0.1635    2.5785 H       1  UNL11       0.4829
     37 H           7.8195   -1.6790   -1.6192 H       1  UNL11       0.0627
     38 H           6.1711   -2.3311   -3.3363 H       1  UNL11       0.0618
     39 H           3.7583   -2.0343   -2.8915 H       1  UNL11       0.0618
     40 H           3.0027   -1.0644   -0.7206 H       1  UNL11       0.0624
     41 H           3.6592    2.5256    0.9888 H       1  UNL11       0.0621
     42 H           2.3789    3.9139   -0.5171 H       1  UNL11       0.0646
     43 H          -2.1225   -0.4948   -3.7455 H       1  UNL11       0.0472
     44 H          -2.7883    1.2277   -3.4640 H       1  UNL11       0.0472
     45 H          -0.3899    0.4036   -5.2668 H       1  UNL11       0.0425
     46 H          -0.4618    0.8583   -8.4155 H       1  UNL11       0.0464
     47 H          -1.0402   -0.3104   -7.2273 H       1  UNL11       0.0464
     48 H          -3.0754   -0.6644   -8.1981 H       1  UNL11       0.0281
     49 H          -2.0956   -0.2456   -9.6872 H       1  UNL11       0.0281
     50 H          -3.4308    1.6492   -9.9759 H       1  UNL11       0.0281
     51 H          -4.3495    1.2190   -8.4431 H       1  UNL11       0.0281
     52 H          -1.8919    3.0115   -8.6612 H       1  UNL11       0.0464
     53 H          -3.3853    3.1057   -7.5921 H       1  UNL11       0.0464
     54 H          -0.9334    2.9242   -3.5614 H       1  UNL11       0.0472
     55 H           0.7109    2.0440   -3.7710 H       1  UNL11       0.0472
@<TRIPOS>BOND
     1     1     2    2
     2     2     3    1
     3     2    22   am
     4     3     4   ar
     5     4     5   ar
     6     4    33    1
     7     5     6    1
     8     5    18   ar
     9     6     7    1
    10     6    34    1
    11     6    35    1
    12     7     8    2
    13     8     9    1
    14     9    10   am
    15     9    36    1
    16    10    11    2
    17    10    12    1
    18    12    13   ar
    19    13    14   ar
    20    13    37    1
    21    14    15   ar
    22    14    38    1
    23    15    16   ar
    24    15    39    1
    25    16    17   ar
    26    16    40    1
    27    17     7    1
    28    17    12   ar
    29    18    19   ar
    30    18    41    1
    31    19    20   ar
    32    19    42    1
    33    20    21    1
    34    20     3   ar
    35    22    23    1
    36    23    24    1
    37    23    43    1
    38    23    44    1
    39    24    25    1
    40    24    32    1
    41    24    45    1
    42    25    26    2
    43    25    27   am
    44    27    28    1
    45    28    29    1
    46    28    46    1
    47    28    47    1
    48    29    30    1
    49    29    48    1
    50    29    49    1
    51    30    31    1
    52    30    50    1
    53    30    51    1
    54    31    27    1
    55    31    52    1
    56    31    53    1
    57    32    22    1
    58    32    54    1
    59    32    55    1
@<TRIPOS>MOLECULE
*****
 55 59 0 0 0
SMALL
GASTEIGER

@<TRIPOS>ATOM
      1 O          -1.1443   -0.5020   -0.9361 O.2     1  UNL11      -0.2699
      2 C          -0.5029    0.4217   -1.4654 C.2     1  UNL11       0.2494
      3 C           0.6491    1.0612   -0.8254 C.ar    1  UNL11       0.0723
      4 C           1.3856    0.2663    0.0291 C.ar    1  UNL11      -0.0433
      5 C           2.5072    0.7531    0.7212 C.ar    1  UNL11      -0.0405
      6 C           3.2107   -0.1755    1.6219 C.3     1  UNL11       0.0211
      7 C           3.7214   -1.3239    0.8599 C.2     1  UNL11       0.1192
      8 N           4.3835   -2.2743    1.5709 N.2     1  UNL11      -0.0073
      9 N           4.8336   -3.3804    1.0321 N.am    1  UNL11      -0.0356
     10 C           4.6662   -3.6462   -0.2733 C.2     1  UNL11       0.4383
     11 O           5.0901   -4.6971   -0.7964 O.2     1  UNL11      -0.2116
     12 C           4.0002   -2.7058   -1.0317 C.ar    1  UNL11       0.1004
     13 C           3.8115   -2.9118   -2.3980 C.ar    1  UNL11      -0.0441
     14 C           3.1585   -1.9488   -3.1512 C.ar    1  UNL11      -0.0608
     15 C           2.6974   -0.7998   -2.5742 C.ar    1  UNL11      -0.0611
     16 C           2.8747   -0.5731   -1.2119 C.ar    1  UNL11      -0.0518
     17 C           3.5220   -1.5361   -0.4749 C.ar    1  UNL11       0.0192
     18 C           2.8227    2.0595    0.4952 C.ar    1  UNL11      -0.0555
     19 C           2.0802    2.8760   -0.3729 C.ar    1  UNL11      -0.0254
     20 C           0.9912    2.3572   -1.0278 C.ar    1  UNL11       0.1355
     21 F           0.2435    3.1095   -1.8768 F       1  UNL11      -0.2047
     22 N          -0.8500    0.9320   -2.7531 N.am    1  UNL11      -0.2959
     23 C          -0.2778    1.9684   -3.5868 C.3     1  UNL11       0.0276
     24 C          -1.5992    2.1174   -4.2746 C.3     1  UNL11       0.0671
     25 C          -1.4771    2.2262   -5.7287 C.2     1  UNL11       0.2217
     26 O          -0.9496    1.2693   -6.4175 O.2     1  UNL11      -0.2752
     27 N          -1.9326    3.3807   -6.4084 N.am    1  UNL11      -0.3012
     28 C          -1.9142    3.7004   -7.8045 C.3     1  UNL11       0.0147
     29 C          -3.2871    4.3207   -8.0189 C.3     1  UNL11      -0.0357
     30 C          -3.6896    4.8672   -6.6687 C.3     1  UNL11      -0.0357
     31 C          -2.5442    4.5453   -5.7416 C.3     1  UNL11       0.0147
     32 C          -1.8410    0.7013   -3.7726 C.3     1  UNL11       0.0276
     33 H           1.1394   -0.7699    0.2104 H       1  UNL11       0.0629
     34 H           2.5133   -0.5919    2.4083 H       1  UNL11       0.0379
     35 H           3.9924    0.3282    2.2293 H       1  UNL11       0.0379
     36 H           5.3519   -4.1152    1.6127 H       1  UNL11       0.4829
     37 H           4.1877   -3.8272   -2.8184 H       1  UNL11       0.0627
     38 H           3.0326   -2.1512   -4.2141 H       1  UNL11       0.0618
     39 H           2.1951   -0.0675   -3.1825 H       1  UNL11       0.0618
     40 H           2.5345    0.3384   -0.7445 H       1  UNL11       0.0624
     41 H           3.6592    2.5256    0.9888 H       1  UNL11       0.0621
     42 H           2.3789    3.9139   -0.5171 H       1  UNL11       0.0646
     43 H           0.1052    2.8437   -3.0229 H       1  UNL11       0.0472
     44 H           0.4962    1.4873   -4.2463 H       1  UNL11       0.0472
     45 H          -2.2487    2.8782   -3.7853 H       1  UNL11       0.0425
     46 H          -1.1062    4.4309   -8.0468 H       1  UNL11       0.0464
     47 H          -1.7963    2.8706   -8.4954 H       1  UNL11       0.0464
     48 H          -3.9813    3.5113   -8.3380 H       1  UNL11       0.0281
     49 H          -3.2241    5.1166   -8.7879 H       1  UNL11       0.0281
     50 H          -3.8924    5.9601   -6.7147 H       1  UNL11       0.0281
     51 H          -4.5883    4.3143   -6.2843 H       1  UNL11       0.0281
     52 H          -1.7691    5.3186   -5.6985 H       1  UNL11       0.0464
     53 H          -2.9136    4.2502   -4.7337 H       1  UNL11       0.0464
     54 H          -1.4953   -0.0144   -4.5745 H       1  UNL11       0.0472
     55 H          -2.8735    0.5093   -3.4130 H       1  UNL11       0.0472
@<TRIPOS>BOND
     1     1     2    2
     2     2     3    1
     3     2    22   am
     4     3     4   ar
     5     4     5   ar
     6     4    33    1
     7     5     6    1
     8     5    18   ar
     9     6     7    1
    10     6    34    1
    11     6    35    1
    12     7     8    2
    13     8     9    1
    14     9    10   am
    15     9    36    1
    16    10    11    2
    17    10    12    1
    18    12    13   ar
    19    13    14   ar
    20    13    37    1
    21    14    15   ar
    22    14    38    1
    23    15    16   ar
    24    15    39    1
    25    16    17   ar
    26    16    40    1
    27    17     7    1
    28    17    12   ar
    29    18    19   ar
    30    18    41    1
    31    19    20   ar
    32    19    42    1
    33    20    21    1
    34    20     3   ar
    35    22    23    1
    36    23    24    1
    37    23    43    1
    38    23    44    1
    39    24    25    1
    40    24    32    1
    41    24    45    1
    42    25    26    2
    43    25    27   am
    44    27    28    1
    45    28    29    1
    46    28    46    1
    47    28    47    1
    48    29    30    1
    49    29    48    1
    50    29    49    1
    51    30    31    1
    52    30    50    1
    53    30    51    1
    54    31    27    1
    55    31    52    1
    56    31    53    1
    57    32    22    1
    58    32    54    1
    59    32    55    1
@<TRIPOS>MOLECULE
*****
 55 59 0 0 0
SMALL
GASTEIGER

@<TRIPOS>ATOM
      1 O          -1.1443   -0.5020   -0.9361 O.2     1  UNL11      -0.2699
      2 C          -0.5029    0.4217   -1.4654 C.2     1  UNL11       0.2494
      3 C           0.6491    1.0612   -0.8254 C.ar    1  UNL11       0.0723
      4 C           1.3856    0.2663    0.0291 C.ar    1  UNL11      -0.0433
      5 C           2.5072    0.7531    0.7212 C.ar    1  UNL11      -0.0405
      6 C           3.2107   -0.1755    1.6219 C.3     1  UNL11       0.0211
      7 C           2.2659   -1.1634    2.1622 C.2     1  UNL11       0.1192
      8 N           0.9744   -1.0498    1.7545 N.2     1  UNL11      -0.0073
      9 N           0.0411   -1.8999    2.1046 N.am    1  UNL11      -0.0356
     10 C           0.3071   -2.9496    2.8984 C.2     1  UNL11       0.4383
     11 O          -0.5743   -3.7659    3.2371 O.2     1  UNL11      -0.2116
     12 C           1.6066   -3.1005    3.3362 C.ar    1  UNL11       0.1004
     13 C           1.9445   -4.1582    4.1800 C.ar    1  UNL11      -0.0441
     14 C           3.2500   -4.2853    4.6282 C.ar    1  UNL11      -0.0608
     15 C           4.2107   -3.3887    4.2555 C.ar    1  UNL11      -0.0611
     16 C           3.8957   -2.3251    3.4139 C.ar    1  UNL11      -0.0518
     17 C           2.5984   -2.2104    2.9743 C.ar    1  UNL11       0.0192
     18 C           2.8227    2.0595    0.4952 C.ar    1  UNL11      -0.0555
     19 C           2.0802    2.8760   -0.3729 C.ar    1  UNL11      -0.0254
     20 C           0.9912    2.3572   -1.0278 C.ar    1  UNL11       0.1355
     21 F           0.2435    3.1095   -1.8768 F       1  UNL11      -0.2047
     22 N          -0.8500    0.9320   -2.7531 N.am    1  UNL11      -0.2959
     23 C          -0.2778    1.9684   -3.5868 C.3     1  UNL11       0.0276
     24 C          -1.5992    2.1174   -4.2746 C.3     1  UNL11       0.0671
     25 C          -1.4771    2.2262   -5.7287 C.2     1  UNL11       0.2217
     26 O          -0.7907    3.1821   -6.2610 O.2     1  UNL11      -0.2752
     27 N          -2.1086    1.2885   -6.5798 N.am    1  UNL11      -0.3012
     28 C          -2.1262    1.2012   -8.0094 C.3     1  UNL11       0.0147
     29 C          -1.9416   -0.2899   -8.2510 C.3     1  UNL11      -0.0357
     30 C          -2.4647   -0.9608   -7.0020 C.3     1  UNL11      -0.0357
     31 C          -2.9265    0.1580   -6.1020 C.3     1  UNL11       0.0147
     32 C          -1.8410    0.7013   -3.7726 C.3     1  UNL11       0.0276
     33 H           1.1394   -0.7699    0.2104 H       1  UNL11       0.0629
     34 H           3.6535    0.3689    2.5084 H       1  UNL11       0.0379
     35 H           4.1024   -0.6377    1.1476 H       1  UNL11       0.0379
     36 H          -0.9698   -1.7903    1.7702 H       1  UNL11       0.4829
     37 H           1.1631   -4.8444    4.4529 H       1  UNL11       0.0627
     38 H           3.4695   -5.1263    5.2849 H       1  UNL11       0.0618
     39 H           5.2164   -3.5098    4.6195 H       1  UNL11       0.0618
     40 H           4.6384   -1.5964    3.1265 H       1  UNL11       0.0624
     41 H           3.6592    2.5256    0.9888 H       1  UNL11       0.0621
     42 H           2.3789    3.9139   -0.5171 H       1  UNL11       0.0646
     43 H           0.1052    2.8437   -3.0229 H       1  UNL11       0.0472
     44 H           0.4962    1.4873   -4.2463 H       1  UNL11       0.0472
     45 H          -2.2487    2.8782   -3.7853 H       1  UNL11       0.0425
     46 H          -3.0978    1.5542   -8.4293 H       1  UNL11       0.0464
     47 H          -1.3471    1.7384   -8.5424 H       1  UNL11       0.0464
     48 H          -0.8525   -0.4835   -8.3743 H       1  UNL11       0.0281
     49 H          -2.5048   -0.5968   -9.1551 H       1  UNL11       0.0281
     50 H          -3.2872   -1.6728   -7.2352 H       1  UNL11       0.0281
     51 H          -1.6266   -1.4856   -6.4697 H       1  UNL11       0.0281
     52 H          -3.9724    0.4505   -6.2478 H       1  UNL11       0.0464
     53 H          -2.6847   -0.0571   -5.0368 H       1  UNL11       0.0464
     54 H          -1.4953   -0.0144   -4.5745 H       1  UNL11       0.0472
     55 H          -2.8735    0.5093   -3.4130 H       1  UNL11       0.0472
@<TRIPOS>BOND
     1     1     2    2
     2     2     3    1
     3     2    22   am
     4     3     4   ar
     5     4     5   ar
     6     4    33    1
     7     5     6    1
     8     5    18   ar
     9     6     7    1
    10     6    34    1
    11     6    35    1
    12     7     8    2
    13     8     9    1
    14     9    10   am
    15     9    36    1
    16    10    11    2
    17    10    12    1
    18    12    13   ar
    19    13    14   ar
    20    13    37    1
    21    14    15   ar
    22    14    38    1
    23    15    16   ar
    24    15    39    1
    25    16    17   ar
    26    16    40    1
    27    17     7    1
    28    17    12   ar
    29    18    19   ar
    30    18    41    1
    31    19    20   ar
    32    19    42    1
    33    20    21    1
    34    20     3   ar
    35    22    23    1
    36    23    24    1
    37    23    43    1
    38    23    44    1
    39    24    25    1
    40    24    32    1
    41    24    45    1
    42    25    26    2
    43    25    27   am
    44    27    28    1
    45    28    29    1
    46    28    46    1
    47    28    47    1
    48    29    30    1
    49    29    48    1
    50    29    49    1
    51    30    31    1
    52    30    50    1
    53    30    51    1
    54    31    27    1
    55    31    52    1
    56    31    53    1
    57    32    22    1
    58    32    54    1
    59    32    55    1
@<TRIPOS>MOLECULE
*****
 55 59 0 0 0
SMALL
GASTEIGER

@<TRIPOS>ATOM
      1 O          -0.5450   -0.7934   -1.7236 O.2     1  UNL11      -0.2699
      2 C          -0.5029    0.4217   -1.4654 C.2     1  UNL11       0.2494
      3 C           0.6491    1.0612   -0.8254 C.ar    1  UNL11       0.0723
      4 C           1.3856    0.2663    0.0291 C.ar    1  UNL11      -0.0433
      5 C           2.5072    0.7531    0.7212 C.ar    1  UNL11      -0.0405
      6 C           3.2107   -0.1755    1.6219 C.3     1  UNL11       0.0211
      7 C           2.2659   -1.1634    2.1622 C.2     1  UNL11       0.1192
      8 N           2.5305   -2.4671    1.8841 N.2     1  UNL11      -0.0073
      9 N           1.8106   -3.4549    2.3558 N.am    1  UNL11      -0.0356
     10 C           0.7531   -3.2365    3.1537 C.2     1  UNL11       0.4383
     11 O           0.0613   -4.1701    3.6093 O.2     1  UNL11      -0.2116
     12 C           0.4490   -1.9261    3.4593 C.ar    1  UNL11       0.1004
     13 C          -0.6494   -1.6303    4.2660 C.ar    1  UNL11      -0.0441
     14 C          -0.9547   -0.3079    4.5478 C.ar    1  UNL11      -0.0608
     15 C          -0.1952    0.7103    4.0459 C.ar    1  UNL11      -0.0611
     16 C           0.9059    0.4382    3.2383 C.ar    1  UNL11      -0.0518
     17 C           1.2001   -0.8769    2.9673 C.ar    1  UNL11       0.0192
     18 C           2.8227    2.0595    0.4952 C.ar    1  UNL11      -0.0555
     19 C           2.0802    2.8760   -0.3729 C.ar    1  UNL11      -0.0254
     20 C           0.9912    2.3572   -1.0278 C.ar    1  UNL11       0.1355
     21 F           0.2435    3.1095   -1.8768 F       1  UNL11      -0.2047
     22 N          -1.5910    1.2917   -1.7786 N.am    1  UNL11      -0.2959
     23 C          -1.7940    2.7146   -1.6033 C.3     1  UNL11       0.0276
     24 C          -3.2734    2.4870   -1.6302 C.3     1  UNL11       0.0671
     25 C          -3.9871    3.4666   -2.4502 C.2     1  UNL11       0.2217
     26 O          -3.7338    3.5770   -3.7119 O.2     1  UNL11      -0.2752
     27 N          -4.9667    4.3123   -1.8779 N.am    1  UNL11      -0.3012
     28 C          -5.4286    4.4110   -0.5256 C.3     1  UNL11       0.0147
     29 C          -5.5278    5.9155   -0.3200 C.3     1  UNL11      -0.0357
     30 C          -5.7326    6.4911   -1.7022 C.3     1  UNL11      -0.0357
     31 C          -5.7452    5.3081   -2.6378 C.3     1  UNL11       0.0147
     32 C          -2.9033    1.2078   -2.3666 C.3     1  UNL11       0.0276
     33 H           1.1394   -0.7699    0.2104 H       1  UNL11       0.0629
     34 H           3.6535    0.3689    2.5084 H       1  UNL11       0.0379
     35 H           4.1024   -0.6377    1.1476 H       1  UNL11       0.0379
     36 H           2.0389   -4.4745    2.1235 H       1  UNL11       0.4829
     37 H          -1.2248   -2.4565    4.6434 H       1  UNL11       0.0627
     38 H          -1.8207   -0.1229    5.1823 H       1  UNL11       0.0618
     39 H          -0.4555    1.7284    4.2789 H       1  UNL11       0.0618
     40 H           1.5042    1.2318    2.8170 H       1  UNL11       0.0624
     41 H           3.6592    2.5256    0.9888 H       1  UNL11       0.0621
     42 H           2.3789    3.9139   -0.5171 H       1  UNL11       0.0646
     43 H          -1.3577    3.1228   -0.6683 H       1  UNL11       0.0472
     44 H          -1.4231    3.2292   -2.5322 H       1  UNL11       0.0472
     45 H          -3.6938    2.3081   -0.6146 H       1  UNL11       0.0425
     46 H          -6.4252    3.9260   -0.3967 H       1  UNL11       0.0464
     47 H          -4.7830    3.9972    0.2437 H       1  UNL11       0.0464
     48 H          -4.5636    6.2653    0.1123 H       1  UNL11       0.0281
     49 H          -6.3744    6.1474    0.3569 H       1  UNL11       0.0281
     50 H          -6.6748    7.0796   -1.7637 H       1  UNL11       0.0281
     51 H          -4.8509    7.1256   -1.9872 H       1  UNL11       0.0281
     52 H          -6.7369    4.8696   -2.7956 H       1  UNL11       0.0464
     53 H          -5.2230    5.5447   -3.5921 H       1  UNL11       0.0464
     54 H          -2.9094    1.4309   -3.4734 H       1  UNL11       0.0472
     55 H          -3.5077    0.3210   -2.0832 H       1  UNL11       0.0472
@<TRIPOS>BOND
     1     1     2    2
     2     2     3    1
     3     2    22   am
     4     3     4   ar
     5     4     5   ar
     6     4    33    1
     7     5     6    1
     8     5    18   ar
     9     6     7    1
    10     6    34    1
    11     6    35    1
    12     7     8    2
    13     8     9    1
    14     9    10   am
    15     9    36    1
    16    10    11    2
    17    10    12    1
    18    12    13   ar
    19    13    14   ar
    20    13    37    1
    21    14    15   ar
    22    14    38    1
    23    15    16   ar
    24    15    39    1
    25    16    17   ar
    26    16    40    1
    27    17     7    1
    28    17    12   ar
    29    18    19   ar
    30    18    41    1
    31    19    20   ar
    32    19    42    1
    33    20    21    1
    34    20     3   ar
    35    22    23    1
    36    23    24    1
    37    23    43    1
    38    23    44    1
    39    24    25    1
    40    24    32    1
    41    24    45    1
    42    25    26    2
    43    25    27   am
    44    27    28    1
    45    28    29    1
    46    28    46    1
    47    28    47    1
    48    29    30    1
    49    29    48    1
    50    29    49    1
    51    30    31    1
    52    30    50    1
    53    30    51    1
    54    31    27    1
    55    31    52    1
    56    31    53    1
    57    32    22    1
    58    32    54    1
    59    32    55    1
@<TRIPOS>MOLECULE
*****
 55 59 0 0 0
SMALL
GASTEIGER

@<TRIPOS>ATOM
      1 O          -1.1443   -0.5020   -0.9361 O.2     1  UNL11      -0.2699
      2 C          -0.5029    0.4217   -1.4654 C.2     1  UNL11       0.2494
      3 C           0.6491    1.0612   -0.8254 C.ar    1  UNL11       0.0723
      4 C           1.3856    0.2663    0.0291 C.ar    1  UNL11      -0.0433
      5 C           2.5072    0.7531    0.7212 C.ar    1  UNL11      -0.0405
      6 C           3.2107   -0.1755    1.6219 C.3     1  UNL11       0.0211
      7 C           2.5514   -1.4890    1.6035 C.2     1  UNL11       0.1192
      8 N           3.0037   -2.3791    0.6814 N.2     1  UNL11      -0.0073
      9 N           2.5529   -3.6062    0.5969 N.am    1  UNL11      -0.0356
     10 C           1.6034   -4.0658    1.4275 C.2     1  UNL11       0.4383
     11 O           1.1676   -5.2332    1.3563 O.2     1  UNL11      -0.2116
     12 C           1.1154   -3.1931    2.3779 C.ar    1  UNL11       0.1004
     13 C           0.1134   -3.6019    3.2576 C.ar    1  UNL11      -0.0441
     14 C          -0.3814   -2.7076    4.1938 C.ar    1  UNL11      -0.0608
     15 C           0.0981   -1.4307    4.2670 C.ar    1  UNL11      -0.0611
     16 C           1.0982   -1.0010    3.3988 C.ar    1  UNL11      -0.0518
     17 C           1.5825   -1.8973    2.4758 C.ar    1  UNL11       0.0192
     18 C           2.8227    2.0595    0.4952 C.ar    1  UNL11      -0.0555
     19 C           2.0802    2.8760   -0.3729 C.ar    1  UNL11      -0.0254
     20 C           0.9912    2.3572   -1.0278 C.ar    1  UNL11       0.1355
     21 F           0.2435    3.1095   -1.8768 F       1  UNL11      -0.2047
     22 N          -0.8500    0.9320   -2.7531 N.am    1  UNL11      -0.2959
     23 C          -0.2778    1.9684   -3.5868 C.3     1  UNL11       0.0276
     24 C          -1.5992    2.1174   -4.2746 C.3     1  UNL11       0.0671
     25 C          -1.4771    2.2262   -5.7287 C.2     1  UNL11       0.2217
     26 O          -2.5264    2.3738   -6.4673 O.2     1  UNL11      -0.2752
     27 N          -0.2090    2.1708   -6.3542 N.am    1  UNL11      -0.3012
     28 C           1.0958    2.0022   -5.7879 C.3     1  UNL11       0.0147
     29 C           1.7501    1.0238   -6.7525 C.3     1  UNL11      -0.0357
     30 C           1.0292    1.2213   -8.0659 C.3     1  UNL11      -0.0357
     31 C           0.0016    2.2950   -7.8086 C.3     1  UNL11       0.0147
     32 C          -1.8410    0.7013   -3.7726 C.3     1  UNL11       0.0276
     33 H           1.1394   -0.7699    0.2104 H       1  UNL11       0.0629
     34 H           3.1799    0.1882    2.6920 H       1  UNL11       0.0379
     35 H           4.3001   -0.2306    1.4128 H       1  UNL11       0.0379
     36 H           2.9252   -4.2900   -0.1377 H       1  UNL11       0.4829
     37 H          -0.2403   -4.6136    3.1712 H       1  UNL11       0.0627
     38 H          -1.1628   -3.0694    4.8611 H       1  UNL11       0.0618
     39 H          -0.3050   -0.7560    5.0025 H       1  UNL11       0.0618
     40 H           1.4736    0.0105    3.4299 H       1  UNL11       0.0624
     41 H           3.6592    2.5256    0.9888 H       1  UNL11       0.0621
     42 H           2.3789    3.9139   -0.5171 H       1  UNL11       0.0646
     43 H           0.1052    2.8437   -3.0229 H       1  UNL11       0.0472
     44 H           0.4962    1.4873   -4.2463 H       1  UNL11       0.0472
     45 H          -2.2487    2.8782   -3.7853 H       1  UNL11       0.0425
     46 H           1.6572    2.9660   -5.7583 H       1  UNL11       0.0464
     47 H           1.1446    1.5866   -4.7855 H       1  UNL11       0.0464
     48 H           1.5811   -0.0048   -6.3624 H       1  UNL11       0.0281
     49 H           2.8332    1.2448   -6.8351 H       1  UNL11       0.0281
     50 H           1.7331    1.5062   -8.8790 H       1  UNL11       0.0281
     51 H           0.4674    0.2879   -8.3384 H       1  UNL11       0.0281
     52 H           0.3630    3.3148   -7.9822 H       1  UNL11       0.0464
     53 H          -0.9491    2.0786   -8.3459 H       1  UNL11       0.0464
     54 H          -1.4953   -0.0144   -4.5745 H       1  UNL11       0.0472
     55 H          -2.8735    0.5093   -3.4130 H       1  UNL11       0.0472
@<TRIPOS>BOND
     1     1     2    2
     2     2     3    1
     3     2    22   am
     4     3     4   ar
     5     4     5   ar
     6     4    33    1
     7     5     6    1
     8     5    18   ar
     9     6     7    1
    10     6    34    1
    11     6    35    1
    12     7     8    2
    13     8     9    1
    14     9    10   am
    15     9    36    1
    16    10    11    2
    17    10    12    1
    18    12    13   ar
    19    13    14   ar
    20    13    37    1
    21    14    15   ar
    22    14    38    1
    23    15    16   ar
    24    15    39    1
    25    16    17   ar
    26    16    40    1
    27    17     7    1
    28    17    12   ar
    29    18    19   ar
    30    18    41    1
    31    19    20   ar
    32    19    42    1
    33    20    21    1
    34    20     3   ar
    35    22    23    1
    36    23    24    1
    37    23    43    1
    38    23    44    1
    39    24    25    1
    40    24    32    1
    41    24    45    1
    42    25    26    2
    43    25    27   am
    44    27    28    1
    45    28    29    1
    46    28    46    1
    47    28    47    1
    48    29    30    1
    49    29    48    1
    50    29    49    1
    51    30    31    1
    52    30    50    1
    53    30    51    1
    54    31    27    1
    55    31    52    1
    56    31    53    1
    57    32    22    1
    58    32    54    1
    59    32    55    1
@<TRIPOS>MOLECULE
*****
 55 59 0 0 0
SMALL
GASTEIGER

@<TRIPOS>ATOM
      1 O          -1.2462    1.0134   -2.2668 O.2     1  UNL11      -0.2699
      2 C          -0.5029    0.4217   -1.4654 C.2     1  UNL11       0.2494
      3 C           0.6491    1.0612   -0.8254 C.ar    1  UNL11       0.0723
      4 C           1.3856    0.2663    0.0291 C.ar    1  UNL11      -0.0433
      5 C           2.5072    0.7531    0.7212 C.ar    1  UNL11      -0.0405
      6 C           3.2107   -0.1755    1.6219 C.3     1  UNL11       0.0211
      7 C           3.1943    0.3480    2.9952 C.2     1  UNL11       0.1192
      8 N           3.1976   -0.5745    3.9934 N.2     1  UNL11      -0.0073
      9 N           3.2502   -0.2496    5.2614 N.am    1  UNL11      -0.0356
     10 C           3.3048    1.0320    5.6578 C.2     1  UNL11       0.4383
     11 O           3.3561    1.3524    6.8631 O.2     1  UNL11      -0.2116
     12 C           3.3017    2.0005    4.6755 C.ar    1  UNL11       0.1004
     13 C           3.3358    3.3511    5.0213 C.ar    1  UNL11      -0.0441
     14 C           3.3116    4.3133    4.0239 C.ar    1  UNL11      -0.0608
     15 C           3.2543    3.9576    2.7064 C.ar    1  UNL11      -0.0611
     16 C           3.2194    2.6152    2.3382 C.ar    1  UNL11      -0.0518
     17 C           3.2458    1.6700    3.3359 C.ar    1  UNL11       0.0192
     18 C           2.8227    2.0595    0.4952 C.ar    1  UNL11      -0.0555
     19 C           2.0802    2.8760   -0.3729 C.ar    1  UNL11      -0.0254
     20 C           0.9912    2.3572   -1.0278 C.ar    1  UNL11       0.1355
     21 F           0.2435    3.1095   -1.8768 F       1  UNL11      -0.2047
     22 N          -0.7229   -0.9432   -1.1081 N.am    1  UNL11      -0.2959
     23 C          -1.7218   -1.9142   -1.5031 C.3     1  UNL11       0.0276
     24 C          -1.4690   -2.6625   -0.2314 C.3     1  UNL11       0.0671
     25 C          -1.3808   -4.1098   -0.4283 C.2     1  UNL11       0.2217
     26 O          -1.5167   -4.6225   -1.6060 O.2     1  UNL11      -0.2752
     27 N          -1.1465   -4.9757    0.6661 N.am    1  UNL11      -0.3012
     28 C          -1.0253   -6.4023    0.7081 C.3     1  UNL11       0.0147
     29 C           0.1487   -6.6058    1.6547 C.3     1  UNL11      -0.0357
     30 C           0.1691   -5.3743    2.5302 C.3     1  UNL11      -0.0357
     31 C          -0.9824   -4.5213    2.0596 C.3     1  UNL11       0.0147
     32 C          -0.1273   -1.9453   -0.2621 C.3     1  UNL11       0.0276
     33 H           1.1394   -0.7699    0.2104 H       1  UNL11       0.0629
     34 H           4.2973   -0.2866    1.3297 H       1  UNL11       0.0379
     35 H           2.8288   -1.2157    1.5463 H       1  UNL11       0.0379
     36 H           3.2524   -0.9943    6.0303 H       1  UNL11       0.4829
     37 H           3.3804    3.5944    6.0677 H       1  UNL11       0.0627
     38 H           3.3403    5.3557    4.3392 H       1  UNL11       0.0618
     39 H           3.2348    4.7251    1.9520 H       1  UNL11       0.0618
     40 H           3.1534    2.3176    1.3027 H       1  UNL11       0.0624
     41 H           3.6592    2.5256    0.9888 H       1  UNL11       0.0621
     42 H           2.3789    3.9139   -0.5171 H       1  UNL11       0.0646
     43 H          -2.7352   -1.4873   -1.6509 H       1  UNL11       0.0472
     44 H          -1.3296   -2.4592   -2.4056 H       1  UNL11       0.0472
     45 H          -2.1324   -2.3265    0.5976 H       1  UNL11       0.0425
     46 H          -1.9489   -6.8802    1.1126 H       1  UNL11       0.0464
     47 H          -0.8054   -6.9029   -0.2304 H       1  UNL11       0.0464
     48 H           1.0754   -6.6670    1.0411 H       1  UNL11       0.0281
     49 H           0.0002   -7.5328    2.2441 H       1  UNL11       0.0281
     50 H           0.0780   -5.6377    3.6073 H       1  UNL11       0.0281
     51 H           1.1089   -4.7882    2.3448 H       1  UNL11       0.0281
     52 H          -1.9321   -4.7283    2.5655 H       1  UNL11       0.0464
     53 H          -0.7145   -3.4409    2.0735 H       1  UNL11       0.0464
     54 H           0.6071   -2.6075   -0.8070 H       1  UNL11       0.0472
     55 H           0.2316   -1.5954    0.7283 H       1  UNL11       0.0472
@<TRIPOS>BOND
     1     1     2    2
     2     2     3    1
     3     2    22   am
     4     3     4   ar
     5     4     5   ar
     6     4    33    1
     7     5     6    1
     8     5    18   ar
     9     6     7    1
    10     6    34    1
    11     6    35    1
    12     7     8    2
    13     8     9    1
    14     9    10   am
    15     9    36    1
    16    10    11    2
    17    10    12    1
    18    12    13   ar
    19    13    14   ar
    20    13    37    1
    21    14    15   ar
    22    14    38    1
    23    15    16   ar
    24    15    39    1
    25    16    17   ar
    26    16    40    1
    27    17     7    1
    28    17    12   ar
    29    18    19   ar
    30    18    41    1
    31    19    20   ar
    32    19    42    1
    33    20    21    1
    34    20     3   ar
    35    22    23    1
    36    23    24    1
    37    23    43    1
    38    23    44    1
    39    24    25    1
    40    24    32    1
    41    24    45    1
    42    25    26    2
    43    25    27   am
    44    27    28    1
    45    28    29    1
    46    28    46    1
    47    28    47    1
    48    29    30    1
    49    29    48    1
    50    29    49    1
    51    30    31    1
    52    30    50    1
    53    30    51    1
    54    31    27    1
    55    31    52    1
    56    31    53    1
    57    32    22    1
    58    32    54    1
    59    32    55    1
@<TRIPOS>MOLECULE
*****
 55 59 0 0 0
SMALL
GASTEIGER

@<TRIPOS>ATOM
      1 O          -0.9176    0.7462   -2.5912 O.2     1  UNL11      -0.2699
      2 C          -0.5029    0.4217   -1.4654 C.2     1  UNL11       0.2494
      3 C           0.6491    1.0612   -0.8254 C.ar    1  UNL11       0.0723
      4 C           1.3856    0.2663    0.0291 C.ar    1  UNL11      -0.0433
      5 C           2.5072    0.7531    0.7212 C.ar    1  UNL11      -0.0405
      6 C           3.2107   -0.1755    1.6219 C.3     1  UNL11       0.0211
      7 C           2.2659   -1.1634    2.1622 C.2     1  UNL11       0.1192
      8 N           0.9744   -1.0498    1.7545 N.2     1  UNL11      -0.0073
      9 N           0.0411   -1.8999    2.1046 N.am    1  UNL11      -0.0356
     10 C           0.3071   -2.9496    2.8984 C.2     1  UNL11       0.4383
     11 O          -0.5743   -3.7659    3.2371 O.2     1  UNL11      -0.2116
     12 C           1.6066   -3.1005    3.3362 C.ar    1  UNL11       0.1004
     13 C           1.9445   -4.1582    4.1800 C.ar    1  UNL11      -0.0441
     14 C           3.2500   -4.2853    4.6282 C.ar    1  UNL11      -0.0608
     15 C           4.2107   -3.3887    4.2555 C.ar    1  UNL11      -0.0611
     16 C           3.8957   -2.3251    3.4139 C.ar    1  UNL11      -0.0518
     17 C           2.5984   -2.2104    2.9743 C.ar    1  UNL11       0.0192
     18 C           2.8227    2.0595    0.4952 C.ar    1  UNL11      -0.0555
     19 C           2.0802    2.8760   -0.3729 C.ar    1  UNL11      -0.0254
     20 C           0.9912    2.3572   -1.0278 C.ar    1  UNL11       0.1355
     21 F           0.2435    3.1095   -1.8768 F       1  UNL11      -0.2047
     22 N          -1.1294   -0.6130   -0.7064 N.am    1  UNL11      -0.2959
     23 C          -2.2643   -1.4736   -0.9668 C.3     1  UNL11       0.0276
     24 C          -2.4370   -1.6594    0.5086 C.3     1  UNL11       0.0671
     25 C          -2.6973   -3.0500    0.8825 C.2     1  UNL11       0.2217
     26 O          -3.7255   -3.6753    0.4133 O.2     1  UNL11      -0.2752
     27 N          -1.8300   -3.7363    1.7652 N.am    1  UNL11      -0.3012
     28 C          -1.8881   -5.0782    2.2627 C.3     1  UNL11       0.0147
     29 C          -0.4366   -5.5263    2.1729 C.3     1  UNL11      -0.0357
     30 C           0.3756   -4.2541    2.2467 C.3     1  UNL11      -0.0357
     31 C          -0.6293   -3.1368    2.3768 C.3     1  UNL11       0.0147
     32 C          -0.9697   -1.2607    0.5702 C.3     1  UNL11       0.0276
     33 H           1.1394   -0.7699    0.2104 H       1  UNL11       0.0629
     34 H           3.6535    0.3689    2.5084 H       1  UNL11       0.0379
     35 H           4.1024   -0.6377    1.1476 H       1  UNL11       0.0379
     36 H          -0.9698   -1.7903    1.7702 H       1  UNL11       0.4829
     37 H           1.1631   -4.8444    4.4529 H       1  UNL11       0.0627
     38 H           3.4695   -5.1263    5.2849 H       1  UNL11       0.0618
     39 H           5.2164   -3.5098    4.6195 H       1  UNL11       0.0618
     40 H           4.6384   -1.5964    3.1265 H       1  UNL11       0.0624
     41 H           3.6592    2.5256    0.9888 H       1  UNL11       0.0621
     42 H           2.3789    3.9139   -0.5171 H       1  UNL11       0.0646
     43 H          -3.0904   -0.9797   -1.5188 H       1  UNL11       0.0472
     44 H          -1.8797   -2.4017   -1.4730 H       1  UNL11       0.0472
     45 H          -3.1212   -0.9023    0.9544 H       1  UNL11       0.0425
     46 H          -2.2484   -5.1084    3.3183 H       1  UNL11       0.0464
     47 H          -2.5032   -5.7802    1.7072 H       1  UNL11       0.0464
     48 H          -0.2941   -6.0269    1.1890 H       1  UNL11       0.0281
     49 H          -0.2041   -6.2173    3.0080 H       1  UNL11       0.0281
     50 H           1.0880   -4.2736    3.1010 H       1  UNL11       0.0281
     51 H           0.9227   -4.0924    1.2794 H       1  UNL11       0.0281
     52 H          -0.8989   -2.8920    3.4103 H       1  UNL11       0.0464
     53 H          -0.3154   -2.2435    1.7913 H       1  UNL11       0.0464
     54 H          -0.3517   -2.2039    0.5156 H       1  UNL11       0.0472
     55 H          -0.7067   -0.5993    1.4220 H       1  UNL11       0.0472
@<TRIPOS>BOND
     1     1     2    2
     2     2     3    1
     3     2    22   am
     4     3     4   ar
     5     4     5   ar
     6     4    33    1
     7     5     6    1
     8     5    18   ar
     9     6     7    1
    10     6    34    1
    11     6    35    1
    12     7     8    2
    13     8     9    1
    14     9    10   am
    15     9    36    1
    16    10    11    2
    17    10    12    1
    18    12    13   ar
    19    13    14   ar
    20    13    37    1
    21    14    15   ar
    22    14    38    1
    23    15    16   ar
    24    15    39    1
    25    16    17   ar
    26    16    40    1
    27    17     7    1
    28    17    12   ar
    29    18    19   ar
    30    18    41    1
    31    19    20   ar
    32    19    42    1
    33    20    21    1
    34    20     3   ar
    35    22    23    1
    36    23    24    1
    37    23    43    1
    38    23    44    1
    39    24    25    1
    40    24    32    1
    41    24    45    1
    42    25    26    2
    43    25    27   am
    44    27    28    1
    45    28    29    1
    46    28    46    1
    47    28    47    1
    48    29    30    1
    49    29    48    1
    50    29    49    1
    51    30    31    1
    52    30    50    1
    53    30    51    1
    54    31    27    1
    55    31    52    1
    56    31    53    1
    57    32    22    1
    58    32    54    1
    59    32    55    1
@<TRIPOS>MOLECULE
*****
 55 59 0 0 0
SMALL
GASTEIGER

@<TRIPOS>ATOM
      1 O          -1.5298    1.0438   -1.7867 O.2     1  UNL11      -0.2699
      2 C          -0.5029    0.4217   -1.4654 C.2     1  UNL11       0.2494
      3 C           0.6491    1.0612   -0.8254 C.ar    1  UNL11       0.0723
      4 C           1.3856    0.2663    0.0291 C.ar    1  UNL11      -0.0433
      5 C           2.5072    0.7531    0.7212 C.ar    1  UNL11      -0.0405
      6 C           3.2107   -0.1755    1.6219 C.3     1  UNL11       0.0211
      7 C           3.0722   -1.5537    1.1301 C.2     1  UNL11       0.1192
      8 N           1.9385   -1.8361    0.4357 N.2     1  UNL11      -0.0073
      9 N           1.7147   -3.0034   -0.1154 N.am    1  UNL11      -0.0356
     10 C           2.6037   -4.0056   -0.0267 C.2     1  UNL11       0.4383
     11 O           2.4008   -5.1209   -0.5489 O.2     1  UNL11      -0.2116
     12 C           3.7680   -3.7608    0.6716 C.ar    1  UNL11       0.1004
     13 C           4.7230   -4.7663    0.8183 C.ar    1  UNL11      -0.0441
     14 C           5.8787   -4.5119    1.5399 C.ar    1  UNL11      -0.0608
     15 C           6.0956   -3.2899    2.1103 C.ar    1  UNL11      -0.0611
     16 C           5.1557   -2.2713    1.9767 C.ar    1  UNL11      -0.0518
     17 C           4.0144   -2.5347    1.2573 C.ar    1  UNL11       0.0192
     18 C           2.8227    2.0595    0.4952 C.ar    1  UNL11      -0.0555
     19 C           2.0802    2.8760   -0.3729 C.ar    1  UNL11      -0.0254
     20 C           0.9912    2.3572   -1.0278 C.ar    1  UNL11       0.1355
     21 F           0.2435    3.1095   -1.8768 F       1  UNL11      -0.2047
     22 N          -0.3723   -0.9805   -1.7019 N.am    1  UNL11      -0.2959
     23 C           0.6839   -1.9306   -1.4219 C.3     1  UNL11       0.0276
     24 C           0.1573   -2.8082   -2.5145 C.3     1  UNL11       0.0671
     25 C           0.1070   -4.2212   -2.1377 C.2     1  UNL11       0.2217
     26 O          -0.9514   -4.7180   -1.5887 O.2     1  UNL11      -0.2752
     27 N           1.2157   -5.0705   -2.3657 N.am    1  UNL11      -0.3012
     28 C           2.4984   -4.7851   -2.9358 C.3     1  UNL11       0.0147
     29 C           3.4437   -5.5482   -2.0195 C.3     1  UNL11      -0.0357
     30 C           2.6125   -6.6679   -1.4373 C.3     1  UNL11      -0.0357
     31 C           1.2376   -6.5079   -2.0366 C.3     1  UNL11       0.0147
     32 C          -1.1423   -2.0525   -2.2785 C.3     1  UNL11       0.0276
     33 H           1.1394   -0.7699    0.2104 H       1  UNL11       0.0629
     34 H           2.7658   -0.1554    2.6611 H       1  UNL11       0.0379
     35 H           4.2661    0.1204    1.8012 H       1  UNL11       0.0379
     36 H           0.8140   -3.2024   -0.6585 H       1  UNL11       0.4829
     37 H           4.5191   -5.7156    0.3563 H       1  UNL11       0.0627
     38 H           6.5976   -5.3256    1.6287 H       1  UNL11       0.0618
     39 H           7.0009   -3.1196    2.6671 H       1  UNL11       0.0618
     40 H           5.3023   -1.3067    2.4384 H       1  UNL11       0.0624
     41 H           3.6592    2.5256    0.9888 H       1  UNL11       0.0621
     42 H           2.3789    3.9139   -0.5171 H       1  UNL11       0.0646
     43 H           1.7072   -1.5202   -1.5459 H       1  UNL11       0.0472
     44 H           0.4945   -2.3596   -0.3994 H       1  UNL11       0.0472
     45 H           0.6263   -2.5866   -3.4999 H       1  UNL11       0.0425
     46 H           2.5731   -5.1596   -3.9842 H       1  UNL11       0.0464
     47 H           2.8031   -3.7428   -2.9588 H       1  UNL11       0.0464
     48 H           3.7800   -4.8515   -1.2192 H       1  UNL11       0.0281
     49 H           4.3058   -5.9299   -2.6025 H       1  UNL11       0.0281
     50 H           3.0520   -7.6640   -1.6659 H       1  UNL11       0.0281
     51 H           2.5053   -6.5283   -0.3281 H       1  UNL11       0.0281
     52 H           1.0935   -7.0432   -2.9818 H       1  UNL11       0.0464
     53 H           0.4443   -6.7344   -1.2890 H       1  UNL11       0.0464
     54 H          -1.7440   -2.6277   -1.5156 H       1  UNL11       0.0472
     55 H          -1.7061   -1.8048   -3.2020 H       1  UNL11       0.0472
@<TRIPOS>BOND
     1     1     2    2
     2     2     3    1
     3     2    22   am
     4     3     4   ar
     5     4     5   ar
     6     4    33    1
     7     5     6    1
     8     5    18   ar
     9     6     7    1
    10     6    34    1
    11     6    35    1
    12     7     8    2
    13     8     9    1
    14     9    10   am
    15     9    36    1
    16    10    11    2
    17    10    12    1
    18    12    13   ar
    19    13    14   ar
    20    13    37    1
    21    14    15   ar
    22    14    38    1
    23    15    16   ar
    24    15    39    1
    25    16    17   ar
    26    16    40    1
    27    17     7    1
    28    17    12   ar
    29    18    19   ar
    30    18    41    1
    31    19    20   ar
    32    19    42    1
    33    20    21    1
    34    20     3   ar
    35    22    23    1
    36    23    24    1
    37    23    43    1
    38    23    44    1
    39    24    25    1
    40    24    32    1
    41    24    45    1
    42    25    26    2
    43    25    27   am
    44    27    28    1
    45    28    29    1
    46    28    46    1
    47    28    47    1
    48    29    30    1
    49    29    48    1
    50    29    49    1
    51    30    31    1
    52    30    50    1
    53    30    51    1
    54    31    27    1
    55    31    52    1
    56    31    53    1
    57    32    22    1
    58    32    54    1
    59    32    55    1
@<TRIPOS>MOLECULE
*****
 55 59 0 0 0
SMALL
GASTEIGER

@<TRIPOS>ATOM
      1 O          -1.5298    1.0438   -1.7867 O.2     1  UNL11      -0.2699
      2 C          -0.5029    0.4217   -1.4654 C.2     1  UNL11       0.2494
      3 C           0.6491    1.0612   -0.8254 C.ar    1  UNL11       0.0723
      4 C           1.3856    0.2663    0.0291 C.ar    1  UNL11      -0.0433
      5 C           2.5072    0.7531    0.7212 C.ar    1  UNL11      -0.0405
      6 C           3.2107   -0.1755    1.6219 C.3     1  UNL11       0.0211
      7 C           3.7214   -1.3239    0.8599 C.2     1  UNL11       0.1192
      8 N           3.2608   -2.5477    1.2306 N.2     1  UNL11      -0.0073
      9 N           3.5807   -3.6493    0.5977 N.am    1  UNL11      -0.0356
     10 C           4.3941   -3.6364   -0.4704 C.2     1  UNL11       0.4383
     11 O           4.7043   -4.6797   -1.0812 O.2     1  UNL11      -0.2116
     12 C           4.8853   -2.4137   -0.8789 C.ar    1  UNL11       0.1004
     13 C           5.7517   -2.3340   -1.9688 C.ar    1  UNL11      -0.0441
     14 C           6.2534   -1.1009   -2.3549 C.ar    1  UNL11      -0.0608
     15 C           5.9117    0.0378   -1.6826 C.ar    1  UNL11      -0.0611
     16 C           5.0484   -0.0182   -0.5916 C.ar    1  UNL11      -0.0518
     17 C           4.5557   -1.2462   -0.2191 C.ar    1  UNL11       0.0192
     18 C           2.8227    2.0595    0.4952 C.ar    1  UNL11      -0.0555
     19 C           2.0802    2.8760   -0.3729 C.ar    1  UNL11      -0.0254
     20 C           0.9912    2.3572   -1.0278 C.ar    1  UNL11       0.1355
     21 F           0.2435    3.1095   -1.8768 F       1  UNL11      -0.2047
     22 N          -0.3723   -0.9805   -1.7019 N.am    1  UNL11      -0.2959
     23 C          -1.2539   -1.9636   -2.2959 C.3     1  UNL11       0.0276
     24 C          -0.5340   -3.0369   -1.5402 C.3     1  UNL11       0.0671
     25 C          -0.2497   -4.2175   -2.3566 C.2     1  UNL11       0.2217
     26 O          -1.0293   -4.5448   -3.3331 O.2     1  UNL11      -0.2752
     27 N           0.8826   -5.0240   -2.0924 N.am    1  UNL11      -0.3012
     28 C           1.8896   -4.9028   -1.0810 C.3     1  UNL11       0.0147
     29 C           2.0707   -6.3423   -0.6218 C.3     1  UNL11      -0.0357
     30 C           1.6510   -7.1894   -1.8007 C.3     1  UNL11      -0.0357
     31 C           1.2516   -6.2148   -2.8804 C.3     1  UNL11       0.0147
     32 C           0.5995   -2.0228   -1.4929 C.3     1  UNL11       0.0276
     33 H           1.1394   -0.7699    0.2104 H       1  UNL11       0.0629
     34 H           2.5133   -0.5919    2.4083 H       1  UNL11       0.0379
     35 H           3.9924    0.3282    2.2293 H       1  UNL11       0.0379
     36 H           3.2047   -4.6023    0.9079 H       1  UNL11       0.4829
     37 H           5.9991   -3.2503   -2.4741 H       1  UNL11       0.0627
     38 H           6.9261   -1.0851   -3.2116 H       1  UNL11       0.0618
     39 H           6.3171    0.9823   -2.0024 H       1  UNL11       0.0618
     40 H           4.7846    0.8695   -0.0369 H       1  UNL11       0.0624
     41 H           3.6592    2.5256    0.9888 H       1  UNL11       0.0621
     42 H           2.3789    3.9139   -0.5171 H       1  UNL11       0.0646
     43 H          -2.3277   -1.8087   -2.0634 H       1  UNL11       0.0472
     44 H          -1.0349   -1.9962   -3.3988 H       1  UNL11       0.0472
     45 H          -0.9928   -3.2358   -0.5451 H       1  UNL11       0.0425
     46 H           2.8416   -4.4961   -1.4974 H       1  UNL11       0.0464
     47 H           1.6451   -4.2910   -0.2174 H       1  UNL11       0.0464
     48 H           1.3933   -6.5119    0.2449 H       1  UNL11       0.0281
     49 H           3.1285   -6.5167   -0.3398 H       1  UNL11       0.0281
     50 H           2.4721   -7.8630   -2.1322 H       1  UNL11       0.0281
     51 H           0.7343   -7.7828   -1.5387 H       1  UNL11       0.0281
     52 H           2.0738   -5.9082   -3.5366 H       1  UNL11       0.0464
     53 H           0.3648   -6.5814   -3.4449 H       1  UNL11       0.0464
     54 H           1.2609   -2.2002   -2.3906 H       1  UNL11       0.0472
     55 H           1.1490   -1.9897   -0.5290 H       1  UNL11       0.0472
@<TRIPOS>BOND
     1     1     2    2
     2     2     3    1
     3     2    22   am
     4     3     4   ar
     5     4     5   ar
     6     4    33    1
     7     5     6    1
     8     5    18   ar
     9     6     7    1
    10     6    34    1
    11     6    35    1
    12     7     8    2
    13     8     9    1
    14     9    10   am
    15     9    36    1
    16    10    11    2
    17    10    12    1
    18    12    13   ar
    19    13    14   ar
    20    13    37    1
    21    14    15   ar
    22    14    38    1
    23    15    16   ar
    24    15    39    1
    25    16    17   ar
    26    16    40    1
    27    17     7    1
    28    17    12   ar
    29    18    19   ar
    30    18    41    1
    31    19    20   ar
    32    19    42    1
    33    20    21    1
    34    20     3   ar
    35    22    23    1
    36    23    24    1
    37    23    43    1
    38    23    44    1
    39    24    25    1
    40    24    32    1
    41    24    45    1
    42    25    26    2
    43    25    27   am
    44    27    28    1
    45    28    29    1
    46    28    46    1
    47    28    47    1
    48    29    30    1
    49    29    48    1
    50    29    49    1
    51    30    31    1
    52    30    50    1
    53    30    51    1
    54    31    27    1
    55    31    52    1
    56    31    53    1
    57    32    22    1
    58    32    54    1
    59    32    55    1
@<TRIPOS>MOLECULE
*****
 55 59 0 0 0
SMALL
GASTEIGER

@<TRIPOS>ATOM
      1 O          -0.8160   -0.7643   -1.2649 O.2     1  UNL11      -0.2699
      2 C          -0.5029    0.4217   -1.4654 C.2     1  UNL11       0.2494
      3 C           0.6491    1.0612   -0.8254 C.ar    1  UNL11       0.0723
      4 C           1.3856    0.2663    0.0291 C.ar    1  UNL11      -0.0433
      5 C           2.5072    0.7531    0.7212 C.ar    1  UNL11      -0.0405
      6 C           3.2107   -0.1755    1.6219 C.3     1  UNL11       0.0211
      7 C           4.3396    0.5096    2.2673 C.2     1  UNL11       0.1192
      8 N           4.6764    0.0784    3.5114 N.2     1  UNL11      -0.0073
      9 N           5.7010    0.5537    4.1753 N.am    1  UNL11      -0.0356
     10 C           6.4916    1.5087    3.6602 C.2     1  UNL11       0.4383
     11 O           7.4706    1.9676    4.2837 O.2     1  UNL11      -0.2116
     12 C           6.1832    1.9757    2.3993 C.ar    1  UNL11       0.1004
     13 C           6.9525    2.9820    1.8159 C.ar    1  UNL11      -0.0441
     14 C           6.6182    3.4555    0.5569 C.ar    1  UNL11      -0.0608
     15 C           5.5452    2.9507   -0.1209 C.ar    1  UNL11      -0.0611
     16 C           4.7631    1.9458    0.4423 C.ar    1  UNL11      -0.0518
     17 C           5.1054    1.4829    1.6905 C.ar    1  UNL11       0.0192
     18 C           2.8227    2.0595    0.4952 C.ar    1  UNL11      -0.0555
     19 C           2.0802    2.8760   -0.3729 C.ar    1  UNL11      -0.0254
     20 C           0.9912    2.3572   -1.0278 C.ar    1  UNL11       0.1355
     21 F           0.2435    3.1095   -1.8768 F       1  UNL11      -0.2047
     22 N          -1.2560    1.2561   -2.3461 N.am    1  UNL11      -0.2959
     23 C          -2.4341    1.0218   -3.1547 C.3     1  UNL11       0.0276
     24 C          -2.0249    2.1545   -4.0440 C.3     1  UNL11       0.0671
     25 C          -3.1399    3.0331   -4.3993 C.2     1  UNL11       0.2217
     26 O          -4.3430    2.5696   -4.4773 O.2     1  UNL11      -0.2752
     27 N          -2.9227    4.4059   -4.6654 N.am    1  UNL11      -0.3012
     28 C          -3.8494    5.4365   -5.0270 C.3     1  UNL11       0.0147
     29 C          -3.3843    6.6108   -4.1783 C.3     1  UNL11      -0.0357
     30 C          -1.9182    6.3541   -3.9171 C.3     1  UNL11      -0.0357
     31 C          -1.6005    5.0578   -4.6198 C.3     1  UNL11       0.0147
     32 C          -1.2315    2.6129   -2.8291 C.3     1  UNL11       0.0276
     33 H           1.1394   -0.7699    0.2104 H       1  UNL11       0.0629
     34 H           3.6447   -1.0503    1.0521 H       1  UNL11       0.0379
     35 H           2.5276   -0.6688    2.3455 H       1  UNL11       0.0379
     36 H           5.9474    0.1977    5.1543 H       1  UNL11       0.4829
     37 H           7.7893    3.3559    2.3782 H       1  UNL11       0.0627
     38 H           7.2466    4.2412    0.1392 H       1  UNL11       0.0618
     39 H           5.3066    3.3376   -1.0967 H       1  UNL11       0.0618
     40 H           3.8999    1.5505   -0.0713 H       1  UNL11       0.0624
     41 H           3.6592    2.5256    0.9888 H       1  UNL11       0.0621
     42 H           2.3789    3.9139   -0.5171 H       1  UNL11       0.0646
     43 H          -2.4797    0.0095   -3.6065 H       1  UNL11       0.0472
     44 H          -3.3337    1.2732   -2.5279 H       1  UNL11       0.0472
     45 H          -1.3844    1.8189   -4.8910 H       1  UNL11       0.0425
     46 H          -3.7855    5.6819   -6.1136 H       1  UNL11       0.0464
     47 H          -4.8980    5.2485   -4.8150 H       1  UNL11       0.0464
     48 H          -3.9617    6.5942   -3.2268 H       1  UNL11       0.0281
     49 H          -3.5492    7.5598   -4.7269 H       1  UNL11       0.0281
     50 H          -1.2853    7.1919   -4.2847 H       1  UNL11       0.0281
     51 H          -1.7490    6.1828   -2.8201 H       1  UNL11       0.0281
     52 H          -1.2791    5.1770   -5.6605 H       1  UNL11       0.0464
     53 H          -0.8963    4.4378   -4.0207 H       1  UNL11       0.0464
     54 H          -1.8872    3.3098   -2.2298 H       1  UNL11       0.0472
     55 H          -0.2290    3.0283   -3.0627 H       1  UNL11       0.0472
@<TRIPOS>BOND
     1     1     2    2
     2     2     3    1
     3     2    22   am
     4     3     4   ar
     5     4     5   ar
     6     4    33    1
     7     5     6    1
     8     5    18   ar
     9     6     7    1
    10     6    34    1
    11     6    35    1
    12     7     8    2
    13     8     9    1
    14     9    10   am
    15     9    36    1
    16    10    11    2
    17    10    12    1
    18    12    13   ar
    19    13    14   ar
    20    13    37    1
    21    14    15   ar
    22    14    38    1
    23    15    16   ar
    24    15    39    1
    25    16    17   ar
    26    16    40    1
    27    17     7    1
    28    17    12   ar
    29    18    19   ar
    30    18    41    1
    31    19    20   ar
    32    19    42    1
    33    20    21    1
    34    20     3   ar
    35    22    23    1
    36    23    24    1
    37    23    43    1
    38    23    44    1
    39    24    25    1
    40    24    32    1
    41    24    45    1
    42    25    26    2
    43    25    27   am
    44    27    28    1
    45    28    29    1
    46    28    46    1
    47    28    47    1
    48    29    30    1
    49    29    48    1
    50    29    49    1
    51    30    31    1
    52    30    50    1
    53    30    51    1
    54    31    27    1
    55    31    52    1
    56    31    53    1
    57    32    22    1
    58    32    54    1
    59    32    55    1
@<TRIPOS>MOLECULE
*****
 55 59 0 0 0
SMALL
GASTEIGER

@<TRIPOS>ATOM
      1 O          -1.5298    1.0438   -1.7867 O.2     1  UNL11      -0.2699
      2 C          -0.5029    0.4217   -1.4654 C.2     1  UNL11       0.2494
      3 C           0.6491    1.0612   -0.8254 C.ar    1  UNL11       0.0723
      4 C           1.3856    0.2663    0.0291 C.ar    1  UNL11      -0.0433
      5 C           2.5072    0.7531    0.7212 C.ar    1  UNL11      -0.0405
      6 C           3.2107   -0.1755    1.6219 C.3     1  UNL11       0.0211
      7 C           3.7214   -1.3239    0.8599 C.2     1  UNL11       0.1192
      8 N           4.3835   -2.2743    1.5709 N.2     1  UNL11      -0.0073
      9 N           4.8336   -3.3804    1.0321 N.am    1  UNL11      -0.0356
     10 C           4.6662   -3.6462   -0.2733 C.2     1  UNL11       0.4383
     11 O           5.0901   -4.6971   -0.7964 O.2     1  UNL11      -0.2116
     12 C           4.0002   -2.7058   -1.0317 C.ar    1  UNL11       0.1004
     13 C           3.8115   -2.9118   -2.3980 C.ar    1  UNL11      -0.0441
     14 C           3.1585   -1.9488   -3.1512 C.ar    1  UNL11      -0.0608
     15 C           2.6974   -0.7998   -2.5742 C.ar    1  UNL11      -0.0611
     16 C           2.8747   -0.5731   -1.2119 C.ar    1  UNL11      -0.0518
     17 C           3.5220   -1.5361   -0.4749 C.ar    1  UNL11       0.0192
     18 C           2.8227    2.0595    0.4952 C.ar    1  UNL11      -0.0555
     19 C           2.0802    2.8760   -0.3729 C.ar    1  UNL11      -0.0254
     20 C           0.9912    2.3572   -1.0278 C.ar    1  UNL11       0.1355
     21 F           0.2435    3.1095   -1.8768 F       1  UNL11      -0.2047
     22 N          -0.3723   -0.9805   -1.7019 N.am    1  UNL11      -0.2959
     23 C          -1.2539   -1.9636   -2.2959 C.3     1  UNL11       0.0276
     24 C          -0.5340   -3.0369   -1.5402 C.3     1  UNL11       0.0671
     25 C          -0.2497   -4.2175   -2.3566 C.2     1  UNL11       0.2217
     26 O           0.8558   -4.3085   -3.0183 O.2     1  UNL11      -0.2752
     27 N          -1.1794   -5.2813   -2.4385 N.am    1  UNL11      -0.3012
     28 C          -1.1136   -6.5140   -3.1649 C.3     1  UNL11       0.0147
     29 C          -1.6516   -7.5195   -2.1574 C.3     1  UNL11      -0.0357
     30 C          -2.5391   -6.7178   -1.2336 C.3     1  UNL11      -0.0357
     31 C          -2.4790   -5.2989   -1.7417 C.3     1  UNL11       0.0147
     32 C           0.5995   -2.0228   -1.4929 C.3     1  UNL11       0.0276
     33 H           1.1394   -0.7699    0.2104 H       1  UNL11       0.0629
     34 H           2.5133   -0.5919    2.4083 H       1  UNL11       0.0379
     35 H           3.9924    0.3282    2.2293 H       1  UNL11       0.0379
     36 H           5.3519   -4.1152    1.6127 H       1  UNL11       0.4829
     37 H           4.1877   -3.8272   -2.8184 H       1  UNL11       0.0627
     38 H           3.0326   -2.1512   -4.2141 H       1  UNL11       0.0618
     39 H           2.1951   -0.0675   -3.1825 H       1  UNL11       0.0618
     40 H           2.5345    0.3384   -0.7445 H       1  UNL11       0.0624
     41 H           3.6592    2.5256    0.9888 H       1  UNL11       0.0621
     42 H           2.3789    3.9139   -0.5171 H       1  UNL11       0.0646
     43 H          -2.3277   -1.8087   -2.0634 H       1  UNL11       0.0472
     44 H          -1.0349   -1.9962   -3.3988 H       1  UNL11       0.0472
     45 H          -0.9928   -3.2358   -0.5451 H       1  UNL11       0.0425
     46 H          -1.7538   -6.4858   -4.0784 H       1  UNL11       0.0464
     47 H          -0.1293   -6.8397   -3.4887 H       1  UNL11       0.0464
     48 H          -0.7853   -7.9423   -1.6010 H       1  UNL11       0.0281
     49 H          -2.2127   -8.3169   -2.6849 H       1  UNL11       0.0281
     50 H          -3.5795   -7.1118   -1.2235 H       1  UNL11       0.0281
     51 H          -2.1078   -6.7137   -0.1967 H       1  UNL11       0.0281
     52 H          -3.2368   -5.0584   -2.4957 H       1  UNL11       0.0464
     53 H          -2.4640   -4.5707   -0.8998 H       1  UNL11       0.0464
     54 H           1.2609   -2.2002   -2.3906 H       1  UNL11       0.0472
     55 H           1.1490   -1.9897   -0.5290 H       1  UNL11       0.0472
@<TRIPOS>BOND
     1     1     2    2
     2     2     3    1
     3     2    22   am
     4     3     4   ar
     5     4     5   ar
     6     4    33    1
     7     5     6    1
     8     5    18   ar
     9     6     7    1
    10     6    34    1
    11     6    35    1
    12     7     8    2
    13     8     9    1
    14     9    10   am
    15     9    36    1
    16    10    11    2
    17    10    12    1
    18    12    13   ar
    19    13    14   ar
    20    13    37    1
    21    14    15   ar
    22    14    38    1
    23    15    16   ar
    24    15    39    1
    25    16    17   ar
    26    16    40    1
    27    17     7    1
    28    17    12   ar
    29    18    19   ar
    30    18    41    1
    31    19    20   ar
    32    19    42    1
    33    20    21    1
    34    20     3   ar
    35    22    23    1
    36    23    24    1
    37    23    43    1
    38    23    44    1
    39    24    25    1
    40    24    32    1
    41    24    45    1
    42    25    26    2
    43    25    27   am
    44    27    28    1
    45    28    29    1
    46    28    46    1
    47    28    47    1
    48    29    30    1
    49    29    48    1
    50    29    49    1
    51    30    31    1
    52    30    50    1
    53    30    51    1
    54    31    27    1
    55    31    52    1
    56    31    53    1
    57    32    22    1
    58    32    54    1
    59    32    55    1
@<TRIPOS>MOLECULE
*****
 55 59 0 0 0
SMALL
GASTEIGER

@<TRIPOS>ATOM
      1 O          -1.1443   -0.5020   -0.9361 O.2     1  UNL11      -0.2699
      2 C          -0.5029    0.4217   -1.4654 C.2     1  UNL11       0.2494
      3 C           0.6491    1.0612   -0.8254 C.ar    1  UNL11       0.0723
      4 C           1.3856    0.2663    0.0291 C.ar    1  UNL11      -0.0433
      5 C           2.5072    0.7531    0.7212 C.ar    1  UNL11      -0.0405
      6 C           3.2107   -0.1755    1.6219 C.3     1  UNL11       0.0211
      7 C           2.2659   -1.1634    2.1622 C.2     1  UNL11       0.1192
      8 N           1.2167   -0.6705    2.8718 N.2     1  UNL11      -0.0073
      9 N           0.2649   -1.4307    3.3539 N.am    1  UNL11      -0.0356
     10 C           0.2678   -2.7612    3.1740 C.2     1  UNL11       0.4383
     11 O          -0.6345   -3.4943    3.6281 O.2     1  UNL11      -0.2116
     12 C           1.3168   -3.3025    2.4602 C.ar    1  UNL11       0.1004
     13 C           1.3899   -4.6801    2.2558 C.ar    1  UNL11      -0.0441
     14 C           2.4605   -5.2116    1.5541 C.ar    1  UNL11      -0.0608
     15 C           3.4460   -4.4051    1.0601 C.ar    1  UNL11      -0.0611
     16 C           3.3935   -3.0270    1.2523 C.ar    1  UNL11      -0.0518
     17 C           2.3260   -2.5113    1.9480 C.ar    1  UNL11       0.0192
     18 C           2.8227    2.0595    0.4952 C.ar    1  UNL11      -0.0555
     19 C           2.0802    2.8760   -0.3729 C.ar    1  UNL11      -0.0254
     20 C           0.9912    2.3572   -1.0278 C.ar    1  UNL11       0.1355
     21 F           0.2435    3.1095   -1.8768 F       1  UNL11      -0.2047
     22 N          -0.8500    0.9320   -2.7531 N.am    1  UNL11      -0.2959
     23 C          -1.8921    0.5894   -3.6982 C.3     1  UNL11       0.0276
     24 C          -1.0556    1.1639   -4.7989 C.3     1  UNL11       0.0671
     25 C          -1.8248    1.9932   -5.7273 C.2     1  UNL11       0.2217
     26 O          -3.0755    1.7524   -5.9423 O.2     1  UNL11      -0.2752
     27 N          -1.2146    3.0731   -6.4083 N.am    1  UNL11      -0.3012
     28 C           0.1365    3.5473   -6.3689 C.3     1  UNL11       0.0147
     29 C           0.4275    3.8360   -7.8343 C.3     1  UNL11      -0.0357
     30 C          -0.9211    4.1080   -8.4594 C.3     1  UNL11      -0.0357
     31 C          -1.9235    3.9689   -7.3410 C.3     1  UNL11       0.0147
     32 C          -0.3899    1.9409   -3.6725 C.3     1  UNL11       0.0276
     33 H           1.1394   -0.7699    0.2104 H       1  UNL11       0.0629
     34 H           3.6535    0.3689    2.5084 H       1  UNL11       0.0379
     35 H           4.1024   -0.6377    1.1476 H       1  UNL11       0.0379
     36 H          -0.5525   -1.0195    3.9094 H       1  UNL11       0.4829
     37 H           0.5970   -5.2843    2.6589 H       1  UNL11       0.0627
     38 H           2.4770   -6.2922    1.4176 H       1  UNL11       0.0618
     39 H           4.2673   -4.8441    0.5202 H       1  UNL11       0.0618
     40 H           4.1744   -2.3780    0.8861 H       1  UNL11       0.0624
     41 H           3.6592    2.5256    0.9888 H       1  UNL11       0.0621
     42 H           2.3789    3.9139   -0.5171 H       1  UNL11       0.0646
     43 H          -2.1225   -0.4948   -3.7455 H       1  UNL11       0.0472
     44 H          -2.7883    1.2277   -3.4640 H       1  UNL11       0.0472
     45 H          -0.3899    0.4036   -5.2668 H       1  UNL11       0.0425
     46 H           0.2272    4.4752   -5.7558 H       1  UNL11       0.0464
     47 H           0.8871    2.8568   -5.9952 H       1  UNL11       0.0464
     48 H           0.8890    2.9247   -8.2766 H       1  UNL11       0.0281
     49 H           1.1082    4.7069   -7.9180 H       1  UNL11       0.0281
     50 H          -0.9581    5.1167   -8.9274 H       1  UNL11       0.0281
     51 H          -1.1602    3.3126   -9.2153 H       1  UNL11       0.0281
     52 H          -2.1163    4.8970   -6.7913 H       1  UNL11       0.0464
     53 H          -2.8573    3.4782   -7.6968 H       1  UNL11       0.0464
     54 H          -0.9334    2.9242   -3.5614 H       1  UNL11       0.0472
     55 H           0.7109    2.0440   -3.7710 H       1  UNL11       0.0472
@<TRIPOS>BOND
     1     1     2    2
     2     2     3    1
     3     2    22   am
     4     3     4   ar
     5     4     5   ar
     6     4    33    1
     7     5     6    1
     8     5    18   ar
     9     6     7    1
    10     6    34    1
    11     6    35    1
    12     7     8    2
    13     8     9    1
    14     9    10   am
    15     9    36    1
    16    10    11    2
    17    10    12    1
    18    12    13   ar
    19    13    14   ar
    20    13    37    1
    21    14    15   ar
    22    14    38    1
    23    15    16   ar
    24    15    39    1
    25    16    17   ar
    26    16    40    1
    27    17     7    1
    28    17    12   ar
    29    18    19   ar
    30    18    41    1
    31    19    20   ar
    32    19    42    1
    33    20    21    1
    34    20     3   ar
    35    22    23    1
    36    23    24    1
    37    23    43    1
    38    23    44    1
    39    24    25    1
    40    24    32    1
    41    24    45    1
    42    25    26    2
    43    25    27   am
    44    27    28    1
    45    28    29    1
    46    28    46    1
    47    28    47    1
    48    29    30    1
    49    29    48    1
    50    29    49    1
    51    30    31    1
    52    30    50    1
    53    30    51    1
    54    31    27    1
    55    31    52    1
    56    31    53    1
    57    32    22    1
    58    32    54    1
    59    32    55    1
@<TRIPOS>MOLECULE
*****
 55 59 0 0 0
SMALL
GASTEIGER

@<TRIPOS>ATOM
      1 O          -1.1443   -0.5020   -0.9361 O.2     1  UNL11      -0.2699
      2 C          -0.5029    0.4217   -1.4654 C.2     1  UNL11       0.2494
      3 C           0.6491    1.0612   -0.8254 C.ar    1  UNL11       0.0723
      4 C           1.3856    0.2663    0.0291 C.ar    1  UNL11      -0.0433
      5 C           2.5072    0.7531    0.7212 C.ar    1  UNL11      -0.0405
      6 C           3.2107   -0.1755    1.6219 C.3     1  UNL11       0.0211
      7 C           3.0722   -1.5537    1.1301 C.2     1  UNL11       0.1192
      8 N           2.3547   -1.7180   -0.0125 N.2     1  UNL11      -0.0073
      9 N           2.2066   -2.8806   -0.5978 N.am    1  UNL11      -0.0356
     10 C           2.7620   -3.9961   -0.0979 C.2     1  UNL11       0.4383
     11 O           2.6280   -5.1083   -0.6481 O.2     1  UNL11      -0.2116
     12 C           3.4976   -3.8732    1.0626 C.ar    1  UNL11       0.1004
     13 C           4.0832   -4.9970    1.6448 C.ar    1  UNL11      -0.0441
     14 C           4.8023   -4.8612    2.8219 C.ar    1  UNL11      -0.0608
     15 C           4.9452   -3.6420    3.4207 C.ar    1  UNL11      -0.0611
     16 C           4.3690   -2.5065    2.8572 C.ar    1  UNL11      -0.0518
     17 C           3.6599   -2.6531    1.6888 C.ar    1  UNL11       0.0192
     18 C           2.8227    2.0595    0.4952 C.ar    1  UNL11      -0.0555
     19 C           2.0802    2.8760   -0.3729 C.ar    1  UNL11      -0.0254
     20 C           0.9912    2.3572   -1.0278 C.ar    1  UNL11       0.1355
     21 F           0.2435    3.1095   -1.8768 F       1  UNL11      -0.2047
     22 N          -0.8500    0.9320   -2.7531 N.am    1  UNL11      -0.2959
     23 C          -1.8921    0.5894   -3.6982 C.3     1  UNL11       0.0276
     24 C          -1.0556    1.1639   -4.7989 C.3     1  UNL11       0.0671
     25 C          -1.8248    1.9932   -5.7273 C.2     1  UNL11       0.2217
     26 O          -3.0755    1.7524   -5.9423 O.2     1  UNL11      -0.2752
     27 N          -1.2146    3.0731   -6.4083 N.am    1  UNL11      -0.3012
     28 C           0.1365    3.5473   -6.3689 C.3     1  UNL11       0.0147
     29 C           0.4275    3.8360   -7.8343 C.3     1  UNL11      -0.0357
     30 C          -0.9211    4.1080   -8.4594 C.3     1  UNL11      -0.0357
     31 C          -1.9235    3.9689   -7.3410 C.3     1  UNL11       0.0147
     32 C          -0.3899    1.9409   -3.6725 C.3     1  UNL11       0.0276
     33 H           1.1394   -0.7699    0.2104 H       1  UNL11       0.0629
     34 H           2.7658   -0.1554    2.6611 H       1  UNL11       0.0379
     35 H           4.2661    0.1204    1.8012 H       1  UNL11       0.0379
     36 H           1.6371   -2.9854   -1.4981 H       1  UNL11       0.4829
     37 H           3.9500   -5.9403    1.1463 H       1  UNL11       0.0627
     38 H           5.2430   -5.7650    3.2412 H       1  UNL11       0.0618
     39 H           5.5073   -3.5649    4.3354 H       1  UNL11       0.0618
     40 H           4.4552   -1.5392    3.3284 H       1  UNL11       0.0624
     41 H           3.6592    2.5256    0.9888 H       1  UNL11       0.0621
     42 H           2.3789    3.9139   -0.5171 H       1  UNL11       0.0646
     43 H          -2.1225   -0.4948   -3.7455 H       1  UNL11       0.0472
     44 H          -2.7883    1.2277   -3.4640 H       1  UNL11       0.0472
     45 H          -0.3899    0.4036   -5.2668 H       1  UNL11       0.0425
     46 H           0.2272    4.4752   -5.7558 H       1  UNL11       0.0464
     47 H           0.8871    2.8568   -5.9952 H       1  UNL11       0.0464
     48 H           0.8890    2.9247   -8.2766 H       1  UNL11       0.0281
     49 H           1.1082    4.7069   -7.9180 H       1  UNL11       0.0281
     50 H          -0.9581    5.1167   -8.9274 H       1  UNL11       0.0281
     51 H          -1.1602    3.3126   -9.2153 H       1  UNL11       0.0281
     52 H          -2.1163    4.8970   -6.7913 H       1  UNL11       0.0464
     53 H          -2.8573    3.4782   -7.6968 H       1  UNL11       0.0464
     54 H          -0.9334    2.9242   -3.5614 H       1  UNL11       0.0472
     55 H           0.7109    2.0440   -3.7710 H       1  UNL11       0.0472
@<TRIPOS>BOND
     1     1     2    2
     2     2     3    1
     3     2    22   am
     4     3     4   ar
     5     4     5   ar
     6     4    33    1
     7     5     6    1
     8     5    18   ar
     9     6     7    1
    10     6    34    1
    11     6    35    1
    12     7     8    2
    13     8     9    1
    14     9    10   am
    15     9    36    1
    16    10    11    2
    17    10    12    1
    18    12    13   ar
    19    13    14   ar
    20    13    37    1
    21    14    15   ar
    22    14    38    1
    23    15    16   ar
    24    15    39    1
    25    16    17   ar
    26    16    40    1
    27    17     7    1
    28    17    12   ar
    29    18    19   ar
    30    18    41    1
    31    19    20   ar
    32    19    42    1
    33    20    21    1
    34    20     3   ar
    35    22    23    1
    36    23    24    1
    37    23    43    1
    38    23    44    1
    39    24    25    1
    40    24    32    1
    41    24    45    1
    42    25    26    2
    43    25    27   am
    44    27    28    1
    45    28    29    1
    46    28    46    1
    47    28    47    1
    48    29    30    1
    49    29    48    1
    50    29    49    1
    51    30    31    1
    52    30    50    1
    53    30    51    1
    54    31    27    1
    55    31    52    1
    56    31    53    1
    57    32    22    1
    58    32    54    1
    59    32    55    1
@<TRIPOS>MOLECULE
*****
 55 59 0 0 0
SMALL
GASTEIGER

@<TRIPOS>ATOM
      1 O          -0.9176    0.7462   -2.5912 O.2     1  UNL11      -0.2699
      2 C          -0.5029    0.4217   -1.4654 C.2     1  UNL11       0.2494
      3 C           0.6491    1.0612   -0.8254 C.ar    1  UNL11       0.0723
      4 C           1.3856    0.2663    0.0291 C.ar    1  UNL11      -0.0433
      5 C           2.5072    0.7531    0.7212 C.ar    1  UNL11      -0.0405
      6 C           3.2107   -0.1755    1.6219 C.3     1  UNL11       0.0211
      7 C           3.1943    0.3480    2.9952 C.2     1  UNL11       0.1192
      8 N           2.5638    1.5376    3.1807 N.2     1  UNL11      -0.0073
      9 N           2.4167    2.0879    4.3605 N.am    1  UNL11      -0.0356
     10 C           2.8862    1.5022    5.4737 C.2     1  UNL11       0.4383
     11 O           2.7505    2.0172    6.6024 O.2     1  UNL11      -0.2116
     12 C           3.5348    0.2933    5.3291 C.ar    1  UNL11       0.1004
     13 C           4.0642   -0.3569    6.4434 C.ar    1  UNL11      -0.0441
     14 C           4.7311   -1.5610    6.2801 C.ar    1  UNL11      -0.0608
     15 C           4.8778   -2.1199    5.0425 C.ar    1  UNL11      -0.0611
     16 C           4.3575   -1.4883    3.9160 C.ar    1  UNL11      -0.0518
     17 C           3.6965   -0.2958    4.0906 C.ar    1  UNL11       0.0192
     18 C           2.8227    2.0595    0.4952 C.ar    1  UNL11      -0.0555
     19 C           2.0802    2.8760   -0.3729 C.ar    1  UNL11      -0.0254
     20 C           0.9912    2.3572   -1.0278 C.ar    1  UNL11       0.1355
     21 F           0.2435    3.1095   -1.8768 F       1  UNL11      -0.2047
     22 N          -1.1294   -0.6130   -0.7064 N.am    1  UNL11      -0.2959
     23 C          -0.8651   -1.1683    0.6045 C.3     1  UNL11       0.0276
     24 C          -1.5531   -2.4306    0.1869 C.3     1  UNL11       0.0671
     25 C          -2.4571   -2.9540    1.2116 C.2     1  UNL11       0.2217
     26 O          -3.4611   -2.2531    1.6227 O.2     1  UNL11      -0.2752
     27 N          -2.2493   -4.2364    1.7728 N.am    1  UNL11      -0.3012
     28 C          -2.9940   -4.9405    2.7734 C.3     1  UNL11       0.0147
     29 C          -3.0454   -6.3541    2.2124 C.3     1  UNL11      -0.0357
     30 C          -1.8334   -6.4688    1.3172 C.3     1  UNL11      -0.0357
     31 C          -1.1390   -5.1323    1.3991 C.3     1  UNL11       0.0147
     32 C          -2.2275   -1.5352   -0.8422 C.3     1  UNL11       0.0276
     33 H           1.1394   -0.7699    0.2104 H       1  UNL11       0.0629
     34 H           4.2973   -0.2866    1.3297 H       1  UNL11       0.0379
     35 H           2.8288   -1.2157    1.5463 H       1  UNL11       0.0379
     36 H           1.9154    3.0258    4.4820 H       1  UNL11       0.4829
     37 H           3.9301    0.1121    7.4017 H       1  UNL11       0.0627
     38 H           5.1279   -2.0342    7.1775 H       1  UNL11       0.0618
     39 H           5.4018   -3.0550    4.9435 H       1  UNL11       0.0618
     40 H           4.4825   -1.9063    2.9287 H       1  UNL11       0.0624
     41 H           3.6592    2.5256    0.9888 H       1  UNL11       0.0621
     42 H           2.3789    3.9139   -0.5171 H       1  UNL11       0.0646
     43 H           0.2127   -1.2351    0.8594 H       1  UNL11       0.0472
     44 H          -1.4661   -0.5801    1.3516 H       1  UNL11       0.0472
     45 H          -0.8499   -3.1689   -0.2608 H       1  UNL11       0.0425
     46 H          -2.4727   -4.9234    3.7598 H       1  UNL11       0.0464
     47 H          -4.0099   -4.6023    2.9562 H       1  UNL11       0.0464
     48 H          -3.9824   -6.4524    1.6198 H       1  UNL11       0.0281
     49 H          -3.0208   -7.0889    3.0421 H       1  UNL11       0.0281
     50 H          -1.1687   -7.3025    1.6349 H       1  UNL11       0.0281
     51 H          -2.1569   -6.6058    0.2505 H       1  UNL11       0.0281
     52 H          -0.3986   -5.0583    2.2035 H       1  UNL11       0.0464
     53 H          -0.7296   -4.8306    0.4088 H       1  UNL11       0.0464
     54 H          -3.1885   -1.1512   -0.3908 H       1  UNL11       0.0472
     55 H          -2.3540   -1.9972   -1.8435 H       1  UNL11       0.0472
@<TRIPOS>BOND
     1     1     2    2
     2     2     3    1
     3     2    22   am
     4     3     4   ar
     5     4     5   ar
     6     4    33    1
     7     5     6    1
     8     5    18   ar
     9     6     7    1
    10     6    34    1
    11     6    35    1
    12     7     8    2
    13     8     9    1
    14     9    10   am
    15     9    36    1
    16    10    11    2
    17    10    12    1
    18    12    13   ar
    19    13    14   ar
    20    13    37    1
    21    14    15   ar
    22    14    38    1
    23    15    16   ar
    24    15    39    1
    25    16    17   ar
    26    16    40    1
    27    17     7    1
    28    17    12   ar
    29    18    19   ar
    30    18    41    1
    31    19    20   ar
    32    19    42    1
    33    20    21    1
    34    20     3   ar
    35    22    23    1
    36    23    24    1
    37    23    43    1
    38    23    44    1
    39    24    25    1
    40    24    32    1
    41    24    45    1
    42    25    26    2
    43    25    27   am
    44    27    28    1
    45    28    29    1
    46    28    46    1
    47    28    47    1
    48    29    30    1
    49    29    48    1
    50    29    49    1
    51    30    31    1
    52    30    50    1
    53    30    51    1
    54    31    27    1
    55    31    52    1
    56    31    53    1
    57    32    22    1
    58    32    54    1
    59    32    55    1
