@<TRIPOS>MOLECULE
*****
 40 43 0 0 0
SMALL
GASTEIGER

@<TRIPOS>ATOM
      1 O           3.2428    0.6341   -2.3306 O.2     1  UNL11      -0.2135
      2 C           3.3898    0.6774   -1.0871 C.2     1  UNL11       0.4231
      3 C           2.2905    1.1756   -0.2895 C.ar    1  UNL11       0.1249
      4 C           0.9708    1.0090   -0.7399 C.ar    1  UNL11      -0.0384
      5 C          -0.1132    1.4847   -0.0486 C.ar    1  UNL11      -0.0403
      6 C          -1.5104    1.3321   -0.5163 C.3     1  UNL11       0.0211
      7 C          -2.2881    0.5663    0.4898 C.2     1  UNL11       0.1192
      8 N          -2.9468    1.1738    1.4896 N.2     1  UNL11      -0.0073
      9 N          -3.6477    0.5087    2.3970 N.am    1  UNL11      -0.0356
     10 C          -3.6841   -0.8307    2.2882 C.2     1  UNL11       0.4383
     11 O          -4.3530   -1.4581    3.1554 O.2     1  UNL11      -0.2116
     12 C          -3.0384   -1.5209    1.2967 C.ar    1  UNL11       0.1004
     13 C          -3.0757   -2.9055    1.1854 C.ar    1  UNL11      -0.0441
     14 C          -2.4051   -3.5437    0.1665 C.ar    1  UNL11      -0.0608
     15 C          -1.6734   -2.8622   -0.7820 C.ar    1  UNL11      -0.0611
     16 C          -1.6452   -1.4797   -0.6580 C.ar    1  UNL11      -0.0518
     17 C          -2.3132   -0.8271    0.3586 C.ar    1  UNL11       0.0192
     18 C           0.1182    2.1564    1.1445 C.ar    1  UNL11      -0.0555
     19 C           1.3829    2.3508    1.6353 C.ar    1  UNL11      -0.0253
     20 C           2.4481    1.8595    0.9128 C.ar    1  UNL11       0.1403
     21 F           3.7403    2.0620    1.3421 F       1  UNL11      -0.2045
     22 N           4.5947    0.2482   -0.5070 N.am    1  UNL11      -0.1060
     23 C           5.0854    0.7719    0.6503 C.2     1  UNL11       0.1734
     24 C           6.2833    0.1981    0.9743 C.2     1  UNL11       0.0074
     25 C           6.5520   -0.7107   -0.0073 C.2     1  UNL11       0.0074
     26 C           5.4948   -0.6549   -0.9024 C.2     1  UNL11       0.1734
     27 H           0.8173    0.4805   -1.6727 H       1  UNL11       0.0630
     28 H          -1.9420    2.3711   -0.6093 H       1  UNL11       0.0379
     29 H          -1.5499    0.8574   -1.5187 H       1  UNL11       0.0379
     30 H          -4.1214    1.0694    3.1309 H       1  UNL11       0.4829
     31 H          -3.6435   -3.4451    1.9193 H       1  UNL11       0.0627
     32 H          -2.4353   -4.6200    0.0824 H       1  UNL11       0.0618
     33 H          -1.1407   -3.3451   -1.5888 H       1  UNL11       0.0618
     34 H          -1.0910   -0.8791   -1.3653 H       1  UNL11       0.0624
     35 H          -0.7169    2.5376    1.7047 H       1  UNL11       0.0621
     36 H           1.5736    2.8675    2.5536 H       1  UNL11       0.0646
     37 H           4.6047    1.5398    1.2469 H       1  UNL11       0.1375
     38 H           6.9102    0.4076    1.8322 H       1  UNL11       0.0678
     39 H           7.4106   -1.3588   -0.0939 H       1  UNL11       0.0678
     40 H           5.4439   -1.2559   -1.7909 H       1  UNL11       0.1375
@<TRIPOS>BOND
     1     1     2    2
     2     2     3    1
     3     2    22   am
     4     3     4   ar
     5     4     5   ar
     6     4    27    1
     7     5     6    1
     8     5    18   ar
     9     6     7    1
    10     6    28    1
    11     6    29    1
    12     7     8    2
    13     8     9    1
    14     9    10   am
    15     9    30    1
    16    10    11    2
    17    10    12    1
    18    12    13   ar
    19    13    14   ar
    20    13    31    1
    21    14    15   ar
    22    14    32    1
    23    15    16   ar
    24    15    33    1
    25    16    17   ar
    26    16    34    1
    27    17     7    1
    28    17    12   ar
    29    18    19   ar
    30    18    35    1
    31    19    20   ar
    32    19    36    1
    33    20    21    1
    34    20     3   ar
    35    22    23    1
    36    23    24    2
    37    23    37    1
    38    24    25    1
    39    24    38    1
    40    25    26    2
    41    25    39    1
    42    26    22    1
    43    26    40    1
@<TRIPOS>MOLECULE
*****
 40 43 0 0 0
SMALL
GASTEIGER

@<TRIPOS>ATOM
      1 O           4.4846    1.2834   -1.0246 O.2     1  UNL11      -0.2135
      2 C           3.3898    0.6774   -1.0871 C.2     1  UNL11       0.4231
      3 C           2.2905    1.1756   -0.2895 C.ar    1  UNL11       0.1249
      4 C           0.9708    1.0090   -0.7399 C.ar    1  UNL11      -0.0384
      5 C          -0.1132    1.4847   -0.0486 C.ar    1  UNL11      -0.0403
      6 C          -1.5104    1.3321   -0.5163 C.3     1  UNL11       0.0211
      7 C          -2.3206    2.4800   -0.0375 C.2     1  UNL11       0.1192
      8 N          -1.7817    3.6927    0.1662 N.2     1  UNL11      -0.0073
      9 N          -2.4877    4.7306    0.5920 N.am    1  UNL11      -0.0356
     10 C          -3.7974    4.5332    0.8219 C.2     1  UNL11       0.4383
     11 O          -4.4640    5.5253    1.2273 O.2     1  UNL11      -0.2116
     12 C          -4.4182    3.3261    0.6372 C.ar    1  UNL11       0.1004
     13 C          -5.7718    3.1225    0.8760 C.ar    1  UNL11      -0.0441
     14 C          -6.3396    1.8850    0.6728 C.ar    1  UNL11      -0.0608
     15 C          -5.6150    0.7992    0.2305 C.ar    1  UNL11      -0.0611
     16 C          -4.2640    1.0176   -0.0036 C.ar    1  UNL11      -0.0518
     17 C          -3.6820    2.2534    0.1958 C.ar    1  UNL11       0.0192
     18 C           0.1182    2.1564    1.1445 C.ar    1  UNL11      -0.0555
     19 C           1.3829    2.3508    1.6353 C.ar    1  UNL11      -0.0253
     20 C           2.4481    1.8595    0.9128 C.ar    1  UNL11       0.1403
     21 F           3.7403    2.0620    1.3421 F       1  UNL11      -0.2045
     22 N           3.2570   -0.4491   -1.9152 N.am    1  UNL11      -0.1060
     23 C           2.0814   -0.7953   -2.5090 C.2     1  UNL11       0.1734
     24 C           2.2227   -1.9461   -3.2333 C.2     1  UNL11       0.0074
     25 C           3.5232   -2.3332   -3.0897 C.2     1  UNL11       0.0074
     26 C           4.1315   -1.3920   -2.2736 C.2     1  UNL11       0.1734
     27 H           0.8173    0.4805   -1.6727 H       1  UNL11       0.0630
     28 H          -1.4828    1.3402   -1.6449 H       1  UNL11       0.0379
     29 H          -1.9390    0.3603   -0.1943 H       1  UNL11       0.0379
     30 H          -1.9793    5.6266    0.7189 H       1  UNL11       0.4829
     31 H          -6.3446    3.9624    1.2202 H       1  UNL11       0.0627
     32 H          -7.3918    1.7292    0.8594 H       1  UNL11       0.0618
     33 H          -6.0426   -0.1795    0.0650 H       1  UNL11       0.0618
     34 H          -3.6328    0.2121   -0.3513 H       1  UNL11       0.0624
     35 H          -0.7169    2.5376    1.7047 H       1  UNL11       0.0621
     36 H           1.5736    2.8675    2.5536 H       1  UNL11       0.0646
     37 H           1.1502   -0.2446   -2.4292 H       1  UNL11       0.1375
     38 H           1.4680   -2.4643   -3.8120 H       1  UNL11       0.0678
     39 H           4.0089   -3.1971   -3.5171 H       1  UNL11       0.0678
     40 H           5.1613   -1.4501   -1.9749 H       1  UNL11       0.1375
@<TRIPOS>BOND
     1     1     2    2
     2     2     3    1
     3     2    22   am
     4     3     4   ar
     5     4     5   ar
     6     4    27    1
     7     5     6    1
     8     5    18   ar
     9     6     7    1
    10     6    28    1
    11     6    29    1
    12     7     8    2
    13     8     9    1
    14     9    10   am
    15     9    30    1
    16    10    11    2
    17    10    12    1
    18    12    13   ar
    19    13    14   ar
    20    13    31    1
    21    14    15   ar
    22    14    32    1
    23    15    16   ar
    24    15    33    1
    25    16    17   ar
    26    16    34    1
    27    17     7    1
    28    17    12   ar
    29    18    19   ar
    30    18    35    1
    31    19    20   ar
    32    19    36    1
    33    20    21    1
    34    20     3   ar
    35    22    23    1
    36    23    24    2
    37    23    37    1
    38    24    25    1
    39    24    38    1
    40    25    26    2
    41    25    39    1
    42    26    22    1
    43    26    40    1
@<TRIPOS>MOLECULE
*****
 40 43 0 0 0
SMALL
GASTEIGER

@<TRIPOS>ATOM
      1 O           3.2428    0.6341   -2.3306 O.2     1  UNL11      -0.2135
      2 C           3.3898    0.6774   -1.0871 C.2     1  UNL11       0.4231
      3 C           2.2905    1.1756   -0.2895 C.ar    1  UNL11       0.1249
      4 C           0.9708    1.0090   -0.7399 C.ar    1  UNL11      -0.0384
      5 C          -0.1132    1.4847   -0.0486 C.ar    1  UNL11      -0.0403
      6 C          -1.5104    1.3321   -0.5163 C.3     1  UNL11       0.0211
      7 C          -1.5225    0.6041   -1.8098 C.2     1  UNL11       0.1192
      8 N          -2.0286    1.1507   -2.9268 N.2     1  UNL11      -0.0073
      9 N          -2.0478    0.5181   -4.0915 N.am    1  UNL11      -0.0356
     10 C          -1.5317   -0.7226   -4.1282 C.2     1  UNL11       0.4383
     11 O          -1.5531   -1.3195   -5.2401 O.2     1  UNL11      -0.2116
     12 C          -0.9979   -1.3461   -3.0315 C.ar    1  UNL11       0.1004
     13 C          -0.4655   -2.6290   -3.0700 C.ar    1  UNL11      -0.0441
     14 C           0.0567   -3.2040   -1.9334 C.ar    1  UNL11      -0.0608
     15 C           0.0816   -2.5556   -0.7174 C.ar    1  UNL11      -0.0611
     16 C          -0.4538   -1.2749   -0.6943 C.ar    1  UNL11      -0.0518
     17 C          -0.9804   -0.6864   -1.8266 C.ar    1  UNL11       0.0192
     18 C           0.1182    2.1564    1.1445 C.ar    1  UNL11      -0.0555
     19 C           1.3829    2.3508    1.6353 C.ar    1  UNL11      -0.0253
     20 C           2.4481    1.8595    0.9128 C.ar    1  UNL11       0.1403
     21 F           3.7403    2.0620    1.3421 F       1  UNL11      -0.2045
     22 N           4.5947    0.2482   -0.5070 N.am    1  UNL11      -0.1060
     23 C           4.8119    0.2568    0.8373 C.2     1  UNL11       0.1734
     24 C           6.0736   -0.1815    1.1289 C.2     1  UNL11       0.0074
     25 C           6.6649   -0.4727   -0.0658 C.2     1  UNL11       0.0074
     26 C           5.7294   -0.1974   -1.0512 C.2     1  UNL11       0.1734
     27 H           0.8173    0.4805   -1.6727 H       1  UNL11       0.0630
     28 H          -2.0531    0.7196    0.2614 H       1  UNL11       0.0379
     29 H          -2.0200    2.3153   -0.5901 H       1  UNL11       0.0379
     30 H          -2.4610    1.0258   -4.8970 H       1  UNL11       0.4829
     31 H          -0.4798   -3.1419   -4.0128 H       1  UNL11       0.0627
     32 H           0.4696   -4.2014   -1.9658 H       1  UNL11       0.0618
     33 H           0.4871   -2.9901    0.1853 H       1  UNL11       0.0618
     34 H          -0.4692   -0.7059    0.2245 H       1  UNL11       0.0624
     35 H          -0.7169    2.5376    1.7047 H       1  UNL11       0.0621
     36 H           1.5736    2.8675    2.5536 H       1  UNL11       0.0646
     37 H           4.0931    0.5656    1.5888 H       1  UNL11       0.1375
     38 H           6.5327   -0.2844    2.1044 H       1  UNL11       0.0678
     39 H           7.6627   -0.8461   -0.2382 H       1  UNL11       0.0678
     40 H           5.9260   -0.3199   -2.0997 H       1  UNL11       0.1375
@<TRIPOS>BOND
     1     1     2    2
     2     2     3    1
     3     2    22   am
     4     3     4   ar
     5     4     5   ar
     6     4    27    1
     7     5     6    1
     8     5    18   ar
     9     6     7    1
    10     6    28    1
    11     6    29    1
    12     7     8    2
    13     8     9    1
    14     9    10   am
    15     9    30    1
    16    10    11    2
    17    10    12    1
    18    12    13   ar
    19    13    14   ar
    20    13    31    1
    21    14    15   ar
    22    14    32    1
    23    15    16   ar
    24    15    33    1
    25    16    17   ar
    26    16    34    1
    27    17     7    1
    28    17    12   ar
    29    18    19   ar
    30    18    35    1
    31    19    20   ar
    32    19    36    1
    33    20    21    1
    34    20     3   ar
    35    22    23    1
    36    23    24    2
    37    23    37    1
    38    24    25    1
    39    24    38    1
    40    25    26    2
    41    25    39    1
    42    26    22    1
    43    26    40    1
@<TRIPOS>MOLECULE
*****
 40 43 0 0 0
SMALL
GASTEIGER

@<TRIPOS>ATOM
      1 O           3.2428    0.6341   -2.3306 O.2     1  UNL11      -0.2135
      2 C           3.3898    0.6774   -1.0871 C.2     1  UNL11       0.4231
      3 C           2.2905    1.1756   -0.2895 C.ar    1  UNL11       0.1249
      4 C           0.9708    1.0090   -0.7399 C.ar    1  UNL11      -0.0384
      5 C          -0.1132    1.4847   -0.0486 C.ar    1  UNL11      -0.0403
      6 C          -1.5104    1.3321   -0.5163 C.3     1  UNL11       0.0211
      7 C          -1.5225    0.6041   -1.8098 C.2     1  UNL11       0.1192
      8 N          -0.5788   -0.2974   -2.1252 N.2     1  UNL11      -0.0073
      9 N          -0.5723   -0.9589   -3.2739 N.am    1  UNL11      -0.0356
     10 C          -1.5645   -0.6971   -4.1423 C.2     1  UNL11       0.4383
     11 O          -1.5524   -1.3301   -5.2341 O.2     1  UNL11      -0.2116
     12 C          -2.5616    0.2081   -3.8917 C.ar    1  UNL11       0.1004
     13 C          -3.5864    0.4790   -4.7902 C.ar    1  UNL11      -0.0441
     14 C          -4.5611    1.4011   -4.4823 C.ar    1  UNL11      -0.0608
     15 C          -4.5776    2.0945   -3.2913 C.ar    1  UNL11      -0.0611
     16 C          -3.5475    1.8135   -2.4038 C.ar    1  UNL11      -0.0518
     17 C          -2.5640    0.8913   -2.6998 C.ar    1  UNL11       0.0192
     18 C           0.1182    2.1564    1.1445 C.ar    1  UNL11      -0.0555
     19 C           1.3829    2.3508    1.6353 C.ar    1  UNL11      -0.0253
     20 C           2.4481    1.8595    0.9128 C.ar    1  UNL11       0.1403
     21 F           3.7403    2.0620    1.3421 F       1  UNL11      -0.2045
     22 N           4.5947    0.2482   -0.5070 N.am    1  UNL11      -0.1060
     23 C           5.7579    0.1481   -1.2080 C.2     1  UNL11       0.1734
     24 C           6.7662   -0.3208   -0.4127 C.2     1  UNL11       0.0074
     25 C           6.2204   -0.5211    0.8217 C.2     1  UNL11       0.0074
     26 C           4.8845   -0.1621    0.7299 C.2     1  UNL11       0.1734
     27 H           0.8173    0.4805   -1.6727 H       1  UNL11       0.0630
     28 H          -2.0531    0.7196    0.2614 H       1  UNL11       0.0379
     29 H          -2.0200    2.3153   -0.5901 H       1  UNL11       0.0379
     30 H           0.2006   -1.6353   -3.4241 H       1  UNL11       0.4829
     31 H          -3.5824   -0.0566   -5.7203 H       1  UNL11       0.0627
     32 H          -5.3564    1.6101   -5.1824 H       1  UNL11       0.0618
     33 H          -5.3338    2.8216   -3.0315 H       1  UNL11       0.0618
     34 H          -3.4952    2.3195   -1.4501 H       1  UNL11       0.0624
     35 H          -0.7169    2.5376    1.7047 H       1  UNL11       0.0621
     36 H           1.5736    2.8675    2.5536 H       1  UNL11       0.0646
     37 H           5.8853    0.4018   -2.2550 H       1  UNL11       0.1375
     38 H           7.7979   -0.5045   -0.6863 H       1  UNL11       0.0678
     39 H           6.7099   -0.8854    1.7119 H       1  UNL11       0.0678
     40 H           4.1988   -0.2317    1.5533 H       1  UNL11       0.1375
@<TRIPOS>BOND
     1     1     2    2
     2     2     3    1
     3     2    22   am
     4     3     4   ar
     5     4     5   ar
     6     4    27    1
     7     5     6    1
     8     5    18   ar
     9     6     7    1
    10     6    28    1
    11     6    29    1
    12     7     8    2
    13     8     9    1
    14     9    10   am
    15     9    30    1
    16    10    11    2
    17    10    12    1
    18    12    13   ar
    19    13    14   ar
    20    13    31    1
    21    14    15   ar
    22    14    32    1
    23    15    16   ar
    24    15    33    1
    25    16    17   ar
    26    16    34    1
    27    17     7    1
    28    17    12   ar
    29    18    19   ar
    30    18    35    1
    31    19    20   ar
    32    19    36    1
    33    20    21    1
    34    20     3   ar
    35    22    23    1
    36    23    24    2
    37    23    37    1
    38    24    25    1
    39    24    38    1
    40    25    26    2
    41    25    39    1
    42    26    22    1
    43    26    40    1
@<TRIPOS>MOLECULE
*****
 40 43 0 0 0
SMALL
GASTEIGER

@<TRIPOS>ATOM
      1 O           3.2428    0.6341   -2.3306 O.2     1  UNL11      -0.2135
      2 C           3.3898    0.6774   -1.0871 C.2     1  UNL11       0.4231
      3 C           2.2905    1.1756   -0.2895 C.ar    1  UNL11       0.1249
      4 C           0.9708    1.0090   -0.7399 C.ar    1  UNL11      -0.0384
      5 C          -0.1132    1.4847   -0.0486 C.ar    1  UNL11      -0.0403
      6 C          -1.5104    1.3321   -0.5163 C.3     1  UNL11       0.0211
      7 C          -1.5225    0.6041   -1.8098 C.2     1  UNL11       0.1192
      8 N          -1.6139   -0.7341   -1.8698 N.2     1  UNL11      -0.0073
      9 N          -1.6276   -1.4028   -3.0142 N.am    1  UNL11      -0.0356
     10 C          -1.5453   -0.6862   -4.1486 C.2     1  UNL11       0.4383
     11 O          -1.5586   -1.3290   -5.2347 O.2     1  UNL11      -0.2116
     12 C          -1.4497    0.6801   -4.1677 C.ar    1  UNL11       0.1004
     13 C          -1.3636    1.4202   -5.3406 C.ar    1  UNL11      -0.0441
     14 C          -1.2686    2.7929   -5.2963 C.ar    1  UNL11      -0.0608
     15 C          -1.2533    3.4982   -4.1123 C.ar    1  UNL11      -0.0611
     16 C          -1.3398    2.7455   -2.9489 C.ar    1  UNL11      -0.0518
     17 C          -1.4358    1.3688   -2.9790 C.ar    1  UNL11       0.0192
     18 C           0.1182    2.1564    1.1445 C.ar    1  UNL11      -0.0555
     19 C           1.3829    2.3508    1.6353 C.ar    1  UNL11      -0.0253
     20 C           2.4481    1.8595    0.9128 C.ar    1  UNL11       0.1403
     21 F           3.7403    2.0620    1.3421 F       1  UNL11      -0.2045
     22 N           4.5947    0.2482   -0.5070 N.am    1  UNL11      -0.1060
     23 C           5.0854    0.7719    0.6503 C.2     1  UNL11       0.1734
     24 C           6.2833    0.1981    0.9743 C.2     1  UNL11       0.0074
     25 C           6.5520   -0.7107   -0.0073 C.2     1  UNL11       0.0074
     26 C           5.4948   -0.6549   -0.9024 C.2     1  UNL11       0.1734
     27 H           0.8173    0.4805   -1.6727 H       1  UNL11       0.0630
     28 H          -2.0531    0.7196    0.2614 H       1  UNL11       0.0379
     29 H          -2.0200    2.3153   -0.5901 H       1  UNL11       0.0379
     30 H          -1.7011   -2.4366   -2.9554 H       1  UNL11       0.4829
     31 H          -1.3753    0.8797   -6.2679 H       1  UNL11       0.0627
     32 H          -1.2014    3.3658   -6.2093 H       1  UNL11       0.0618
     33 H          -1.1795    4.5750   -4.0571 H       1  UNL11       0.0618
     34 H          -1.3331    3.2305   -1.9830 H       1  UNL11       0.0624
     35 H          -0.7169    2.5376    1.7047 H       1  UNL11       0.0621
     36 H           1.5736    2.8675    2.5536 H       1  UNL11       0.0646
     37 H           4.6047    1.5398    1.2469 H       1  UNL11       0.1375
     38 H           6.9102    0.4076    1.8322 H       1  UNL11       0.0678
     39 H           7.4106   -1.3588   -0.0939 H       1  UNL11       0.0678
     40 H           5.4439   -1.2559   -1.7909 H       1  UNL11       0.1375
@<TRIPOS>BOND
     1     1     2    2
     2     2     3    1
     3     2    22   am
     4     3     4   ar
     5     4     5   ar
     6     4    27    1
     7     5     6    1
     8     5    18   ar
     9     6     7    1
    10     6    28    1
    11     6    29    1
    12     7     8    2
    13     8     9    1
    14     9    10   am
    15     9    30    1
    16    10    11    2
    17    10    12    1
    18    12    13   ar
    19    13    14   ar
    20    13    31    1
    21    14    15   ar
    22    14    32    1
    23    15    16   ar
    24    15    33    1
    25    16    17   ar
    26    16    34    1
    27    17     7    1
    28    17    12   ar
    29    18    19   ar
    30    18    35    1
    31    19    20   ar
    32    19    36    1
    33    20    21    1
    34    20     3   ar
    35    22    23    1
    36    23    24    2
    37    23    37    1
    38    24    25    1
    39    24    38    1
    40    25    26    2
    41    25    39    1
    42    26    22    1
    43    26    40    1
@<TRIPOS>MOLECULE
*****
 40 43 0 0 0
SMALL
GASTEIGER

@<TRIPOS>ATOM
      1 O           4.4266    0.3026   -0.4919 O.2     1  UNL11      -0.2135
      2 C           3.3898    0.6774   -1.0871 C.2     1  UNL11       0.4231
      3 C           2.2905    1.1756   -0.2895 C.ar    1  UNL11       0.1249
      4 C           0.9708    1.0090   -0.7399 C.ar    1  UNL11      -0.0384
      5 C          -0.1132    1.4847   -0.0486 C.ar    1  UNL11      -0.0403
      6 C          -1.5104    1.3321   -0.5163 C.3     1  UNL11       0.0211
      7 C          -2.1208    2.6730   -0.6975 C.2     1  UNL11       0.1192
      8 N          -2.0584    3.3285   -1.8675 N.2     1  UNL11      -0.0073
      9 N          -2.5977    4.5255   -2.0503 N.am    1  UNL11      -0.0356
     10 C          -3.2285    5.0844   -1.0030 C.2     1  UNL11       0.4383
     11 O          -3.7397    6.2242   -1.1835 O.2     1  UNL11      -0.2116
     12 C          -3.3334    4.4778    0.2207 C.ar    1  UNL11       0.1004
     13 C          -3.9847    5.0564    1.3032 C.ar    1  UNL11      -0.0441
     14 C          -4.0569    4.3977    2.5099 C.ar    1  UNL11      -0.0608
     15 C          -3.4997    3.1533    2.7110 C.ar    1  UNL11      -0.0611
     16 C          -2.8522    2.5878    1.6207 C.ar    1  UNL11      -0.0518
     17 C          -2.7727    3.2372    0.4052 C.ar    1  UNL11       0.0192
     18 C           0.1182    2.1564    1.1445 C.ar    1  UNL11      -0.0555
     19 C           1.3829    2.3508    1.6353 C.ar    1  UNL11      -0.0253
     20 C           2.4481    1.8595    0.9128 C.ar    1  UNL11       0.1403
     21 F           3.7403    2.0620    1.3421 F       1  UNL11      -0.2045
     22 N           3.3204    0.6081   -2.4881 N.am    1  UNL11      -0.1060
     23 C           2.5837    1.4760   -3.2354 C.2     1  UNL11       0.1734
     24 C           2.6676    1.1662   -4.5643 C.2     1  UNL11       0.0074
     25 C           3.4791    0.0730   -4.6534 C.2     1  UNL11       0.0074
     26 C           3.8631   -0.2450   -3.3598 C.2     1  UNL11       0.1734
     27 H           0.8173    0.4805   -1.6727 H       1  UNL11       0.0630
     28 H          -1.4683    0.8038   -1.5131 H       1  UNL11       0.0379
     29 H          -2.1008    0.6992    0.1785 H       1  UNL11       0.0379
     30 H          -2.4956    4.9499   -2.9920 H       1  UNL11       0.4829
     31 H          -4.4224    6.0254    1.1561 H       1  UNL11       0.0627
     32 H          -4.5633    4.8498    3.3498 H       1  UNL11       0.0618
     33 H          -3.5459    2.6206    3.6502 H       1  UNL11       0.0618
     34 H          -2.3909    1.6140    1.7044 H       1  UNL11       0.0624
     35 H          -0.7169    2.5376    1.7047 H       1  UNL11       0.0621
     36 H           1.5736    2.8675    2.5536 H       1  UNL11       0.0646
     37 H           2.0037    2.3059   -2.8460 H       1  UNL11       0.1375
     38 H           2.1934    1.6724   -5.3961 H       1  UNL11       0.0678
     39 H           3.7799   -0.4587   -5.5432 H       1  UNL11       0.0678
     40 H           4.4969   -1.0787   -3.1225 H       1  UNL11       0.1375
@<TRIPOS>BOND
     1     1     2    2
     2     2     3    1
     3     2    22   am
     4     3     4   ar
     5     4     5   ar
     6     4    27    1
     7     5     6    1
     8     5    18   ar
     9     6     7    1
    10     6    28    1
    11     6    29    1
    12     7     8    2
    13     8     9    1
    14     9    10   am
    15     9    30    1
    16    10    11    2
    17    10    12    1
    18    12    13   ar
    19    13    14   ar
    20    13    31    1
    21    14    15   ar
    22    14    32    1
    23    15    16   ar
    24    15    33    1
    25    16    17   ar
    26    16    34    1
    27    17     7    1
    28    17    12   ar
    29    18    19   ar
    30    18    35    1
    31    19    20   ar
    32    19    36    1
    33    20    21    1
    34    20     3   ar
    35    22    23    1
    36    23    24    2
    37    23    37    1
    38    24    25    1
    39    24    38    1
    40    25    26    2
    41    25    39    1
    42    26    22    1
    43    26    40    1
@<TRIPOS>MOLECULE
*****
 40 43 0 0 0
SMALL
GASTEIGER

@<TRIPOS>ATOM
      1 O           4.4266    0.3026   -0.4919 O.2     1  UNL11      -0.2135
      2 C           3.3898    0.6774   -1.0871 C.2     1  UNL11       0.4231
      3 C           2.2905    1.1756   -0.2895 C.ar    1  UNL11       0.1249
      4 C           0.9708    1.0090   -0.7399 C.ar    1  UNL11      -0.0384
      5 C          -0.1132    1.4847   -0.0486 C.ar    1  UNL11      -0.0403
      6 C          -1.5104    1.3321   -0.5163 C.3     1  UNL11       0.0211
      7 C          -1.8389   -0.1109   -0.6312 C.2     1  UNL11       0.1192
      8 N          -3.0426   -0.5332   -1.0499 N.2     1  UNL11      -0.0073
      9 N          -3.3554   -1.8166   -1.1606 N.am    1  UNL11      -0.0356
     10 C          -2.4084   -2.7128   -0.8334 C.2     1  UNL11       0.4383
     11 O          -2.7126   -3.9330   -0.9408 O.2     1  UNL11      -0.2116
     12 C          -1.1585   -2.3590   -0.3988 C.ar    1  UNL11       0.1004
     13 C          -0.1804   -3.2859   -0.0598 C.ar    1  UNL11      -0.0441
     14 C           1.0586   -2.8693    0.3720 C.ar    1  UNL11      -0.0608
     15 C           1.3944   -1.5379    0.4910 C.ar    1  UNL11      -0.0611
     16 C           0.4073   -0.6235    0.1489 C.ar    1  UNL11      -0.0518
     17 C          -0.8391   -1.0276   -0.2856 C.ar    1  UNL11       0.0192
     18 C           0.1182    2.1564    1.1445 C.ar    1  UNL11      -0.0555
     19 C           1.3829    2.3508    1.6353 C.ar    1  UNL11      -0.0253
     20 C           2.4481    1.8595    0.9128 C.ar    1  UNL11       0.1403
     21 F           3.7403    2.0620    1.3421 F       1  UNL11      -0.2045
     22 N           3.3204    0.6081   -2.4881 N.am    1  UNL11      -0.1060
     23 C           2.5837    1.4760   -3.2354 C.2     1  UNL11       0.1734
     24 C           2.6676    1.1662   -4.5643 C.2     1  UNL11       0.0074
     25 C           3.4791    0.0730   -4.6534 C.2     1  UNL11       0.0074
     26 C           3.8631   -0.2450   -3.3598 C.2     1  UNL11       0.1734
     27 H           0.8173    0.4805   -1.6727 H       1  UNL11       0.0630
     28 H          -2.1732    1.8043    0.2662 H       1  UNL11       0.0379
     29 H          -1.6764    1.8716   -1.4719 H       1  UNL11       0.0379
     30 H          -4.3125   -2.0416   -1.4933 H       1  UNL11       0.4829
     31 H          -0.4324   -4.3254   -0.1497 H       1  UNL11       0.0627
     32 H           1.8170   -3.5917    0.6353 H       1  UNL11       0.0618
     33 H           2.3612   -1.1914    0.8278 H       1  UNL11       0.0618
     34 H           0.5986    0.4380    0.2179 H       1  UNL11       0.0624
     35 H          -0.7169    2.5376    1.7047 H       1  UNL11       0.0621
     36 H           1.5736    2.8675    2.5536 H       1  UNL11       0.0646
     37 H           2.0037    2.3059   -2.8460 H       1  UNL11       0.1375
     38 H           2.1934    1.6724   -5.3961 H       1  UNL11       0.0678
     39 H           3.7799   -0.4587   -5.5432 H       1  UNL11       0.0678
     40 H           4.4969   -1.0787   -3.1225 H       1  UNL11       0.1375
@<TRIPOS>BOND
     1     1     2    2
     2     2     3    1
     3     2    22   am
     4     3     4   ar
     5     4     5   ar
     6     4    27    1
     7     5     6    1
     8     5    18   ar
     9     6     7    1
    10     6    28    1
    11     6    29    1
    12     7     8    2
    13     8     9    1
    14     9    10   am
    15     9    30    1
    16    10    11    2
    17    10    12    1
    18    12    13   ar
    19    13    14   ar
    20    13    31    1
    21    14    15   ar
    22    14    32    1
    23    15    16   ar
    24    15    33    1
    25    16    17   ar
    26    16    34    1
    27    17     7    1
    28    17    12   ar
    29    18    19   ar
    30    18    35    1
    31    19    20   ar
    32    19    36    1
    33    20    21    1
    34    20     3   ar
    35    22    23    1
    36    23    24    2
    37    23    37    1
    38    24    25    1
    39    24    38    1
    40    25    26    2
    41    25    39    1
    42    26    22    1
    43    26    40    1
@<TRIPOS>MOLECULE
*****
 40 43 0 0 0
SMALL
GASTEIGER

@<TRIPOS>ATOM
      1 O           4.4266    0.3026   -0.4919 O.2     1  UNL11      -0.2135
      2 C           3.3898    0.6774   -1.0871 C.2     1  UNL11       0.4231
      3 C           2.2905    1.1756   -0.2895 C.ar    1  UNL11       0.1249
      4 C           0.9708    1.0090   -0.7399 C.ar    1  UNL11      -0.0384
      5 C          -0.1132    1.4847   -0.0486 C.ar    1  UNL11      -0.0403
      6 C          -1.5104    1.3321   -0.5163 C.3     1  UNL11       0.0211
      7 C          -1.6298    0.0911   -1.3219 C.2     1  UNL11       0.1192
      8 N          -1.4421    0.0875   -2.6513 N.2     1  UNL11      -0.0073
      9 N          -1.5427   -1.0096   -3.3883 N.am    1  UNL11      -0.0356
     10 C          -1.8466   -2.1543   -2.7524 C.2     1  UNL11       0.4383
     11 O          -1.9412   -3.1953   -3.4599 O.2     1  UNL11      -0.2116
     12 C          -2.0522   -2.2298   -1.4002 C.ar    1  UNL11       0.1004
     13 C          -2.3673   -3.4131   -0.7436 C.ar    1  UNL11      -0.0441
     14 C          -2.5636   -3.4263    0.6189 C.ar    1  UNL11      -0.0608
     15 C          -2.4616   -2.2918    1.3948 C.ar    1  UNL11      -0.0611
     16 C          -2.1464   -1.1171    0.7251 C.ar    1  UNL11      -0.0518
     17 C          -1.9469   -1.0899   -0.6406 C.ar    1  UNL11       0.0192
     18 C           0.1182    2.1564    1.1445 C.ar    1  UNL11      -0.0555
     19 C           1.3829    2.3508    1.6353 C.ar    1  UNL11      -0.0253
     20 C           2.4481    1.8595    0.9128 C.ar    1  UNL11       0.1403
     21 F           3.7403    2.0620    1.3421 F       1  UNL11      -0.2045
     22 N           3.3204    0.6081   -2.4881 N.am    1  UNL11      -0.1060
     23 C           2.5837    1.4760   -3.2354 C.2     1  UNL11       0.1734
     24 C           2.6676    1.1662   -4.5643 C.2     1  UNL11       0.0074
     25 C           3.4791    0.0730   -4.6534 C.2     1  UNL11       0.0074
     26 C           3.8631   -0.2450   -3.3598 C.2     1  UNL11       0.1734
     27 H           0.8173    0.4805   -1.6727 H       1  UNL11       0.0630
     28 H          -2.1580    1.2429    0.4041 H       1  UNL11       0.0379
     29 H          -1.8457    2.2263   -1.0818 H       1  UNL11       0.0379
     30 H          -1.3795   -0.9090   -4.4085 H       1  UNL11       0.4829
     31 H          -2.4484   -4.3023   -1.3394 H       1  UNL11       0.0627
     32 H          -2.8087   -4.3473    1.1269 H       1  UNL11       0.0618
     33 H          -2.6119   -2.2821    2.4650 H       1  UNL11       0.0618
     34 H          -2.0504   -0.1877    1.2683 H       1  UNL11       0.0624
     35 H          -0.7169    2.5376    1.7047 H       1  UNL11       0.0621
     36 H           1.5736    2.8675    2.5536 H       1  UNL11       0.0646
     37 H           2.0037    2.3059   -2.8460 H       1  UNL11       0.1375
     38 H           2.1934    1.6724   -5.3961 H       1  UNL11       0.0678
     39 H           3.7799   -0.4587   -5.5432 H       1  UNL11       0.0678
     40 H           4.4969   -1.0787   -3.1225 H       1  UNL11       0.1375
@<TRIPOS>BOND
     1     1     2    2
     2     2     3    1
     3     2    22   am
     4     3     4   ar
     5     4     5   ar
     6     4    27    1
     7     5     6    1
     8     5    18   ar
     9     6     7    1
    10     6    28    1
    11     6    29    1
    12     7     8    2
    13     8     9    1
    14     9    10   am
    15     9    30    1
    16    10    11    2
    17    10    12    1
    18    12    13   ar
    19    13    14   ar
    20    13    31    1
    21    14    15   ar
    22    14    32    1
    23    15    16   ar
    24    15    33    1
    25    16    17   ar
    26    16    34    1
    27    17     7    1
    28    17    12   ar
    29    18    19   ar
    30    18    35    1
    31    19    20   ar
    32    19    36    1
    33    20    21    1
    34    20     3   ar
    35    22    23    1
    36    23    24    2
    37    23    37    1
    38    24    25    1
    39    24    38    1
    40    25    26    2
    41    25    39    1
    42    26    22    1
    43    26    40    1
@<TRIPOS>MOLECULE
*****
 40 43 0 0 0
SMALL
GASTEIGER

@<TRIPOS>ATOM
      1 O           3.1860   -0.3260   -1.8091 O.2     1  UNL11      -0.2135
      2 C           3.3898    0.6774   -1.0871 C.2     1  UNL11       0.4231
      3 C           2.2905    1.1756   -0.2895 C.ar    1  UNL11       0.1249
      4 C           0.9708    1.0090   -0.7399 C.ar    1  UNL11      -0.0384
      5 C          -0.1132    1.4847   -0.0486 C.ar    1  UNL11      -0.0403
      6 C          -1.5104    1.3321   -0.5163 C.3     1  UNL11       0.0211
      7 C          -2.2881    0.5663    0.4898 C.2     1  UNL11       0.1192
      8 N          -2.3841   -0.7720    0.4434 N.2     1  UNL11      -0.0073
      9 N          -3.0722   -1.4744    1.3324 N.am    1  UNL11      -0.0356
     10 C          -3.6906   -0.7927    2.3122 C.2     1  UNL11       0.4383
     11 O          -4.3443   -1.4672    3.1552 O.2     1  UNL11      -0.2116
     12 C          -3.6388    0.5715    2.4254 C.ar    1  UNL11       0.1004
     13 C          -4.2790    1.2756    3.4378 C.ar    1  UNL11      -0.0441
     14 C          -4.1911    2.6481    3.4990 C.ar    1  UNL11      -0.0608
     15 C          -3.4787    3.3882    2.5801 C.ar    1  UNL11      -0.0611
     16 C          -2.8445    2.6712    1.5745 C.ar    1  UNL11      -0.0518
     17 C          -2.9244    1.2950    1.5014 C.ar    1  UNL11       0.0192
     18 C           0.1182    2.1564    1.1445 C.ar    1  UNL11      -0.0555
     19 C           1.3829    2.3508    1.6353 C.ar    1  UNL11      -0.0253
     20 C           2.4481    1.8595    0.9128 C.ar    1  UNL11       0.1403
     21 F           3.7403    2.0620    1.3421 F       1  UNL11      -0.2045
     22 N           4.6567    1.2831   -1.0679 N.am    1  UNL11      -0.1060
     23 C           5.5759    1.1055   -2.0569 C.2     1  UNL11       0.1734
     24 C           6.7304    1.7812   -1.7750 C.2     1  UNL11       0.0074
     25 C           6.5305    2.3997   -0.5753 C.2     1  UNL11       0.0074
     26 C           5.2463    2.0731   -0.1676 C.2     1  UNL11       0.1734
     27 H           0.8173    0.4805   -1.6727 H       1  UNL11       0.0630
     28 H          -1.9420    2.3711   -0.6093 H       1  UNL11       0.0379
     29 H          -1.5499    0.8574   -1.5187 H       1  UNL11       0.0379
     30 H          -3.0861   -2.5051    1.2104 H       1  UNL11       0.4829
     31 H          -4.8360    0.7078    4.1586 H       1  UNL11       0.0627
     32 H          -4.6900    3.1931    4.2866 H       1  UNL11       0.0618
     33 H          -3.3979    4.4655    2.6115 H       1  UNL11       0.0618
     34 H          -2.2680    3.1846    0.8180 H       1  UNL11       0.0624
     35 H          -0.7169    2.5376    1.7047 H       1  UNL11       0.0621
     36 H           1.5736    2.8675    2.5536 H       1  UNL11       0.0646
     37 H           5.4288    0.5125   -2.9533 H       1  UNL11       0.1375
     38 H           7.6344    1.8295   -2.3694 H       1  UNL11       0.0678
     39 H           7.2192    3.0261   -0.0294 H       1  UNL11       0.0678
     40 H           4.8193    2.4107    0.7580 H       1  UNL11       0.1375
@<TRIPOS>BOND
     1     1     2    2
     2     2     3    1
     3     2    22   am
     4     3     4   ar
     5     4     5   ar
     6     4    27    1
     7     5     6    1
     8     5    18   ar
     9     6     7    1
    10     6    28    1
    11     6    29    1
    12     7     8    2
    13     8     9    1
    14     9    10   am
    15     9    30    1
    16    10    11    2
    17    10    12    1
    18    12    13   ar
    19    13    14   ar
    20    13    31    1
    21    14    15   ar
    22    14    32    1
    23    15    16   ar
    24    15    33    1
    25    16    17   ar
    26    16    34    1
    27    17     7    1
    28    17    12   ar
    29    18    19   ar
    30    18    35    1
    31    19    20   ar
    32    19    36    1
    33    20    21    1
    34    20     3   ar
    35    22    23    1
    36    23    24    2
    37    23    37    1
    38    24    25    1
    39    24    38    1
    40    25    26    2
    41    25    39    1
    42    26    22    1
    43    26    40    1
@<TRIPOS>MOLECULE
*****
 40 43 0 0 0
SMALL
GASTEIGER

@<TRIPOS>ATOM
      1 O           3.1860   -0.3260   -1.8091 O.2     1  UNL11      -0.2135
      2 C           3.3898    0.6774   -1.0871 C.2     1  UNL11       0.4231
      3 C           2.2905    1.1756   -0.2895 C.ar    1  UNL11       0.1249
      4 C           0.9708    1.0090   -0.7399 C.ar    1  UNL11      -0.0384
      5 C          -0.1132    1.4847   -0.0486 C.ar    1  UNL11      -0.0403
      6 C          -1.5104    1.3321   -0.5163 C.3     1  UNL11       0.0211
      7 C          -2.2881    0.5663    0.4898 C.2     1  UNL11       0.1192
      8 N          -3.5855    0.2717    0.3092 N.2     1  UNL11      -0.0073
      9 N          -4.2971   -0.4117    1.1944 N.am    1  UNL11      -0.0356
     10 C          -3.6685   -0.8155    2.3119 C.2     1  UNL11       0.4383
     11 O          -4.3517   -1.4656    3.1507 O.2     1  UNL11      -0.2116
     12 C          -2.3483   -0.5535    2.5666 C.ar    1  UNL11       0.1004
     13 C          -1.6994   -0.9703    3.7224 C.ar    1  UNL11      -0.0441
     14 C          -0.3696   -0.6758    3.9230 C.ar    1  UNL11      -0.0608
     15 C           0.3796    0.0342    3.0097 C.ar    1  UNL11      -0.0611
     16 C          -0.2821    0.4440    1.8600 C.ar    1  UNL11      -0.0518
     17 C          -1.6149    0.1554    1.6462 C.ar    1  UNL11       0.0192
     18 C           0.1182    2.1564    1.1445 C.ar    1  UNL11      -0.0555
     19 C           1.3829    2.3508    1.6353 C.ar    1  UNL11      -0.0253
     20 C           2.4481    1.8595    0.9128 C.ar    1  UNL11       0.1403
     21 F           3.7403    2.0620    1.3421 F       1  UNL11      -0.2045
     22 N           4.6567    1.2831   -1.0679 N.am    1  UNL11      -0.1060
     23 C           4.9464    2.3663   -0.2951 C.2     1  UNL11       0.1734
     24 C           6.2376    2.7713   -0.4895 C.2     1  UNL11       0.0074
     25 C           6.7731    1.9186   -1.4103 C.2     1  UNL11       0.0074
     26 C           5.7756    1.0162   -1.7455 C.2     1  UNL11       0.1734
     27 H           0.8173    0.4805   -1.6727 H       1  UNL11       0.0630
     28 H          -1.9420    2.3711   -0.6093 H       1  UNL11       0.0379
     29 H          -1.5499    0.8574   -1.5187 H       1  UNL11       0.0379
     30 H          -5.2934   -0.5886    0.9629 H       1  UNL11       0.4829
     31 H          -2.2745   -1.5244    4.4395 H       1  UNL11       0.0627
     32 H           0.1324   -1.0005    4.8224 H       1  UNL11       0.0618
     33 H           1.4240    0.2750    3.1492 H       1  UNL11       0.0618
     34 H           0.2415    1.0058    1.0995 H       1  UNL11       0.0624
     35 H          -0.7169    2.5376    1.7047 H       1  UNL11       0.0621
     36 H           1.5736    2.8675    2.5536 H       1  UNL11       0.0646
     37 H           4.2587    2.8541    0.3875 H       1  UNL11       0.1375
     38 H           6.7525    3.5995   -0.0186 H       1  UNL11       0.0678
     39 H           7.7737    1.9229   -1.8148 H       1  UNL11       0.0678
     40 H           5.9098    0.2321   -2.4668 H       1  UNL11       0.1375
@<TRIPOS>BOND
     1     1     2    2
     2     2     3    1
     3     2    22   am
     4     3     4   ar
     5     4     5   ar
     6     4    27    1
     7     5     6    1
     8     5    18   ar
     9     6     7    1
    10     6    28    1
    11     6    29    1
    12     7     8    2
    13     8     9    1
    14     9    10   am
    15     9    30    1
    16    10    11    2
    17    10    12    1
    18    12    13   ar
    19    13    14   ar
    20    13    31    1
    21    14    15   ar
    22    14    32    1
    23    15    16   ar
    24    15    33    1
    25    16    17   ar
    26    16    34    1
    27    17     7    1
    28    17    12   ar
    29    18    19   ar
    30    18    35    1
    31    19    20   ar
    32    19    36    1
    33    20    21    1
    34    20     3   ar
    35    22    23    1
    36    23    24    2
    37    23    37    1
    38    24    25    1
    39    24    38    1
    40    25    26    2
    41    25    39    1
    42    26    22    1
    43    26    40    1
@<TRIPOS>MOLECULE
*****
 40 43 0 0 0
SMALL
GASTEIGER

@<TRIPOS>ATOM
      1 O           4.4846    1.2834   -1.0246 O.2     1  UNL11      -0.2135
      2 C           3.3898    0.6774   -1.0871 C.2     1  UNL11       0.4231
      3 C           2.2905    1.1756   -0.2895 C.ar    1  UNL11       0.1249
      4 C           0.9708    1.0090   -0.7399 C.ar    1  UNL11      -0.0384
      5 C          -0.1132    1.4847   -0.0486 C.ar    1  UNL11      -0.0403
      6 C          -1.5104    1.3321   -0.5163 C.3     1  UNL11       0.0211
      7 C          -1.8389   -0.1109   -0.6312 C.2     1  UNL11       0.1192
      8 N          -2.7204   -0.5680   -1.5349 N.2     1  UNL11      -0.0073
      9 N          -3.0265   -1.8521   -1.6545 N.am    1  UNL11      -0.0356
     10 C          -2.4136   -2.7124   -0.8230 C.2     1  UNL11       0.4383
     11 O          -2.7096   -3.9336   -0.9419 O.2     1  UNL11      -0.2116
     12 C          -1.5038   -2.3220    0.1237 C.ar    1  UNL11       0.1004
     13 C          -0.8713   -3.2117    0.9834 C.ar    1  UNL11      -0.0441
     14 C           0.0344   -2.7591    1.9161 C.ar    1  UNL11      -0.0608
     15 C           0.3600   -1.4264    2.0492 C.ar    1  UNL11      -0.0611
     16 C          -0.2798   -0.5494    1.1836 C.ar    1  UNL11      -0.0518
     17 C          -1.1899   -0.9899    0.2438 C.ar    1  UNL11       0.0192
     18 C           0.1182    2.1564    1.1445 C.ar    1  UNL11      -0.0555
     19 C           1.3829    2.3508    1.6353 C.ar    1  UNL11      -0.0253
     20 C           2.4481    1.8595    0.9128 C.ar    1  UNL11       0.1403
     21 F           3.7403    2.0620    1.3421 F       1  UNL11      -0.2045
     22 N           3.2570   -0.4491   -1.9152 N.am    1  UNL11      -0.1060
     23 C           2.4087   -1.4768   -1.6344 C.2     1  UNL11       0.1734
     24 C           2.4983   -2.4550   -2.5852 C.2     1  UNL11       0.0074
     25 C           3.4291   -2.0297   -3.4876 C.2     1  UNL11       0.0074
     26 C           3.8762   -0.7937   -3.0465 C.2     1  UNL11       0.1734
     27 H           0.8173    0.4805   -1.6727 H       1  UNL11       0.0630
     28 H          -2.1732    1.8043    0.2662 H       1  UNL11       0.0379
     29 H          -1.6764    1.8716   -1.4719 H       1  UNL11       0.0379
     30 H          -3.7202   -2.1056   -2.3838 H       1  UNL11       0.4829
     31 H          -1.1180   -4.2518    0.8870 H       1  UNL11       0.0627
     32 H           0.5244   -3.4525    2.5835 H       1  UNL11       0.0618
     33 H           1.0681   -1.0520    2.7747 H       1  UNL11       0.0618
     34 H          -0.0748    0.5107    1.2303 H       1  UNL11       0.0624
     35 H          -0.7169    2.5376    1.7047 H       1  UNL11       0.0621
     36 H           1.5736    2.8675    2.5536 H       1  UNL11       0.0646
     37 H           1.7450   -1.5286   -0.7779 H       1  UNL11       0.1375
     38 H           1.9507   -3.3882   -2.6325 H       1  UNL11       0.0678
     39 H           3.7686   -2.5356   -4.3784 H       1  UNL11       0.0678
     40 H           4.6299   -0.2243   -3.5572 H       1  UNL11       0.1375
@<TRIPOS>BOND
     1     1     2    2
     2     2     3    1
     3     2    22   am
     4     3     4   ar
     5     4     5   ar
     6     4    27    1
     7     5     6    1
     8     5    18   ar
     9     6     7    1
    10     6    28    1
    11     6    29    1
    12     7     8    2
    13     8     9    1
    14     9    10   am
    15     9    30    1
    16    10    11    2
    17    10    12    1
    18    12    13   ar
    19    13    14   ar
    20    13    31    1
    21    14    15   ar
    22    14    32    1
    23    15    16   ar
    24    15    33    1
    25    16    17   ar
    26    16    34    1
    27    17     7    1
    28    17    12   ar
    29    18    19   ar
    30    18    35    1
    31    19    20   ar
    32    19    36    1
    33    20    21    1
    34    20     3   ar
    35    22    23    1
    36    23    24    2
    37    23    37    1
    38    24    25    1
    39    24    38    1
    40    25    26    2
    41    25    39    1
    42    26    22    1
    43    26    40    1
@<TRIPOS>MOLECULE
*****
 40 43 0 0 0
SMALL
GASTEIGER

@<TRIPOS>ATOM
      1 O           4.5530    0.8316   -0.6480 O.2     1  UNL11      -0.2135
      2 C           3.3898    0.6774   -1.0871 C.2     1  UNL11       0.4231
      3 C           2.2905    1.1756   -0.2895 C.ar    1  UNL11       0.1249
      4 C           0.9708    1.0090   -0.7399 C.ar    1  UNL11      -0.0384
      5 C          -0.1132    1.4847   -0.0486 C.ar    1  UNL11      -0.0403
      6 C          -1.5104    1.3321   -0.5163 C.3     1  UNL11       0.0211
      7 C          -1.8389   -0.1109   -0.6312 C.2     1  UNL11       0.1192
      8 N          -1.1483   -0.9337   -1.4366 N.2     1  UNL11      -0.0073
      9 N          -1.4247   -2.2249   -1.5525 N.am    1  UNL11      -0.0356
     10 C          -2.4450   -2.7055   -0.8209 C.2     1  UNL11       0.4383
     11 O          -2.7031   -3.9356   -0.9360 O.2     1  UNL11      -0.2116
     12 C          -3.1950   -1.9289    0.0222 C.ar    1  UNL11       0.1004
     13 C          -4.2501   -2.4261    0.7773 C.ar    1  UNL11      -0.0441
     14 C          -4.9687   -1.5955    1.6074 C.ar    1  UNL11      -0.0608
     15 C          -4.6901   -0.2518    1.7354 C.ar    1  UNL11      -0.0611
     16 C          -3.6335    0.2306    0.9749 C.ar    1  UNL11      -0.0518
     17 C          -2.9047   -0.5911    0.1388 C.ar    1  UNL11       0.0192
     18 C           0.1182    2.1564    1.1445 C.ar    1  UNL11      -0.0555
     19 C           1.3829    2.3508    1.6353 C.ar    1  UNL11      -0.0253
     20 C           2.4481    1.8595    0.9128 C.ar    1  UNL11       0.1403
     21 F           3.7403    2.0620    1.3421 F       1  UNL11      -0.2045
     22 N           3.1837    0.0381   -2.3205 N.am    1  UNL11      -0.1060
     23 C           4.2046   -0.4365   -3.0866 C.2     1  UNL11       0.1734
     24 C           3.7292   -0.9835   -4.2458 C.2     1  UNL11       0.0074
     25 C           2.3721   -0.8480   -4.2063 C.2     1  UNL11       0.0074
     26 C           2.0692   -0.2161   -3.0101 C.2     1  UNL11       0.1734
     27 H           0.8173    0.4805   -1.6727 H       1  UNL11       0.0630
     28 H          -2.1732    1.8043    0.2662 H       1  UNL11       0.0379
     29 H          -1.6764    1.8716   -1.4719 H       1  UNL11       0.0379
     30 H          -0.8326   -2.7774   -2.2018 H       1  UNL11       0.4829
     31 H          -4.4743   -3.4716    0.6847 H       1  UNL11       0.0627
     32 H          -5.7885   -1.9843    2.1930 H       1  UNL11       0.0618
     33 H          -5.2423    0.4159    2.3814 H       1  UNL11       0.0618
     34 H          -3.3577    1.2746    1.0234 H       1  UNL11       0.0624
     35 H          -0.7169    2.5376    1.7047 H       1  UNL11       0.0621
     36 H           1.5736    2.8675    2.5536 H       1  UNL11       0.0646
     37 H           5.2573   -0.3949   -2.8278 H       1  UNL11       0.1375
     38 H           4.2971   -1.4380   -5.0482 H       1  UNL11       0.0678
     39 H           1.6525   -1.1628   -4.9465 H       1  UNL11       0.0678
     40 H           1.0680    0.0360   -2.7151 H       1  UNL11       0.1375
@<TRIPOS>BOND
     1     1     2    2
     2     2     3    1
     3     2    22   am
     4     3     4   ar
     5     4     5   ar
     6     4    27    1
     7     5     6    1
     8     5    18   ar
     9     6     7    1
    10     6    28    1
    11     6    29    1
    12     7     8    2
    13     8     9    1
    14     9    10   am
    15     9    30    1
    16    10    11    2
    17    10    12    1
    18    12    13   ar
    19    13    14   ar
    20    13    31    1
    21    14    15   ar
    22    14    32    1
    23    15    16   ar
    24    15    33    1
    25    16    17   ar
    26    16    34    1
    27    17     7    1
    28    17    12   ar
    29    18    19   ar
    30    18    35    1
    31    19    20   ar
    32    19    36    1
    33    20    21    1
    34    20     3   ar
    35    22    23    1
    36    23    24    2
    37    23    37    1
    38    24    25    1
    39    24    38    1
    40    25    26    2
    41    25    39    1
    42    26    22    1
    43    26    40    1
@<TRIPOS>MOLECULE
*****
 40 43 0 0 0
SMALL
GASTEIGER

@<TRIPOS>ATOM
      1 O           3.1860   -0.3260   -1.8091 O.2     1  UNL11      -0.2135
      2 C           3.3898    0.6774   -1.0871 C.2     1  UNL11       0.4231
      3 C           2.2905    1.1756   -0.2895 C.ar    1  UNL11       0.1249
      4 C           0.9708    1.0090   -0.7399 C.ar    1  UNL11      -0.0384
      5 C          -0.1132    1.4847   -0.0486 C.ar    1  UNL11      -0.0403
      6 C          -1.5104    1.3321   -0.5163 C.3     1  UNL11       0.0211
      7 C          -1.6619    1.9812   -1.8426 C.2     1  UNL11       0.1192
      8 N          -0.9537    1.5838   -2.9118 N.2     1  UNL11      -0.0073
      9 N          -1.0751    2.1490   -4.1046 N.am    1  UNL11      -0.0356
     10 C          -1.9519    3.1613   -4.2213 C.2     1  UNL11       0.4383
     11 O          -2.0626    3.6953   -5.3596 O.2     1  UNL11      -0.2116
     12 C          -2.7093    3.6221   -3.1772 C.ar    1  UNL11       0.1004
     13 C          -3.6148    4.6691   -3.2982 C.ar    1  UNL11      -0.0441
     14 C          -4.3481    5.0891   -2.2114 C.ar    1  UNL11      -0.0608
     15 C          -4.2298    4.5088   -0.9669 C.ar    1  UNL11      -0.0611
     16 C          -3.3213    3.4642   -0.8611 C.ar    1  UNL11      -0.0518
     17 C          -2.5799    3.0330   -1.9428 C.ar    1  UNL11       0.0192
     18 C           0.1182    2.1564    1.1445 C.ar    1  UNL11      -0.0555
     19 C           1.3829    2.3508    1.6353 C.ar    1  UNL11      -0.0253
     20 C           2.4481    1.8595    0.9128 C.ar    1  UNL11       0.1403
     21 F           3.7403    2.0620    1.3421 F       1  UNL11      -0.2045
     22 N           4.6567    1.2831   -1.0679 N.am    1  UNL11      -0.1060
     23 C           5.5759    1.1055   -2.0569 C.2     1  UNL11       0.1734
     24 C           6.7304    1.7812   -1.7750 C.2     1  UNL11       0.0074
     25 C           6.5305    2.3997   -0.5753 C.2     1  UNL11       0.0074
     26 C           5.2463    2.0731   -0.1676 C.2     1  UNL11       0.1734
     27 H           0.8173    0.4805   -1.6727 H       1  UNL11       0.0630
     28 H          -1.7044    0.2247   -0.6188 H       1  UNL11       0.0379
     29 H          -2.2300    1.7353    0.2263 H       1  UNL11       0.0379
     30 H          -0.4831    1.7701   -4.8684 H       1  UNL11       0.4829
     31 H          -3.7144    5.1271   -4.2638 H       1  UNL11       0.0627
     32 H          -5.0509    5.9033   -2.3080 H       1  UNL11       0.0618
     33 H          -4.7964    4.8241   -0.1023 H       1  UNL11       0.0618
     34 H          -3.1748    2.9616    0.0844 H       1  UNL11       0.0624
     35 H          -0.7169    2.5376    1.7047 H       1  UNL11       0.0621
     36 H           1.5736    2.8675    2.5536 H       1  UNL11       0.0646
     37 H           5.4288    0.5125   -2.9533 H       1  UNL11       0.1375
     38 H           7.6344    1.8295   -2.3694 H       1  UNL11       0.0678
     39 H           7.2192    3.0261   -0.0294 H       1  UNL11       0.0678
     40 H           4.8193    2.4107    0.7580 H       1  UNL11       0.1375
@<TRIPOS>BOND
     1     1     2    2
     2     2     3    1
     3     2    22   am
     4     3     4   ar
     5     4     5   ar
     6     4    27    1
     7     5     6    1
     8     5    18   ar
     9     6     7    1
    10     6    28    1
    11     6    29    1
    12     7     8    2
    13     8     9    1
    14     9    10   am
    15     9    30    1
    16    10    11    2
    17    10    12    1
    18    12    13   ar
    19    13    14   ar
    20    13    31    1
    21    14    15   ar
    22    14    32    1
    23    15    16   ar
    24    15    33    1
    25    16    17   ar
    26    16    34    1
    27    17     7    1
    28    17    12   ar
    29    18    19   ar
    30    18    35    1
    31    19    20   ar
    32    19    36    1
    33    20    21    1
    34    20     3   ar
    35    22    23    1
    36    23    24    2
    37    23    37    1
    38    24    25    1
    39    24    38    1
    40    25    26    2
    41    25    39    1
    42    26    22    1
    43    26    40    1
@<TRIPOS>MOLECULE
*****
 40 43 0 0 0
SMALL
GASTEIGER

@<TRIPOS>ATOM
      1 O           4.4846    1.2834   -1.0246 O.2     1  UNL11      -0.2135
      2 C           3.3898    0.6774   -1.0871 C.2     1  UNL11       0.4231
      3 C           2.2905    1.1756   -0.2895 C.ar    1  UNL11       0.1249
      4 C           0.9708    1.0090   -0.7399 C.ar    1  UNL11      -0.0384
      5 C          -0.1132    1.4847   -0.0486 C.ar    1  UNL11      -0.0403
      6 C          -1.5104    1.3321   -0.5163 C.3     1  UNL11       0.0211
      7 C          -2.2881    0.5663    0.4898 C.2     1  UNL11       0.1192
      8 N          -2.3841   -0.7720    0.4434 N.2     1  UNL11      -0.0073
      9 N          -3.0722   -1.4744    1.3324 N.am    1  UNL11      -0.0356
     10 C          -3.6906   -0.7927    2.3122 C.2     1  UNL11       0.4383
     11 O          -4.3443   -1.4672    3.1552 O.2     1  UNL11      -0.2116
     12 C          -3.6388    0.5715    2.4254 C.ar    1  UNL11       0.1004
     13 C          -4.2790    1.2756    3.4378 C.ar    1  UNL11      -0.0441
     14 C          -4.1911    2.6481    3.4990 C.ar    1  UNL11      -0.0608
     15 C          -3.4787    3.3882    2.5801 C.ar    1  UNL11      -0.0611
     16 C          -2.8445    2.6712    1.5745 C.ar    1  UNL11      -0.0518
     17 C          -2.9244    1.2950    1.5014 C.ar    1  UNL11       0.0192
     18 C           0.1182    2.1564    1.1445 C.ar    1  UNL11      -0.0555
     19 C           1.3829    2.3508    1.6353 C.ar    1  UNL11      -0.0253
     20 C           2.4481    1.8595    0.9128 C.ar    1  UNL11       0.1403
     21 F           3.7403    2.0620    1.3421 F       1  UNL11      -0.2045
     22 N           3.2570   -0.4491   -1.9152 N.am    1  UNL11      -0.1060
     23 C           4.3239   -1.1673   -2.3628 C.2     1  UNL11       0.1734
     24 C           3.9163   -2.1903   -3.1729 C.2     1  UNL11       0.0074
     25 C           2.5556   -2.1117   -3.2358 C.2     1  UNL11       0.0074
     26 C           2.1820   -1.0308   -2.4522 C.2     1  UNL11       0.1734
     27 H           0.8173    0.4805   -1.6727 H       1  UNL11       0.0630
     28 H          -1.9420    2.3711   -0.6093 H       1  UNL11       0.0379
     29 H          -1.5499    0.8574   -1.5187 H       1  UNL11       0.0379
     30 H          -3.0861   -2.5051    1.2104 H       1  UNL11       0.4829
     31 H          -4.8360    0.7078    4.1586 H       1  UNL11       0.0627
     32 H          -4.6900    3.1931    4.2866 H       1  UNL11       0.0618
     33 H          -3.3979    4.4655    2.6115 H       1  UNL11       0.0618
     34 H          -2.2680    3.1846    0.8180 H       1  UNL11       0.0624
     35 H          -0.7169    2.5376    1.7047 H       1  UNL11       0.0621
     36 H           1.5736    2.8675    2.5536 H       1  UNL11       0.0646
     37 H           5.3623   -0.9690   -2.1195 H       1  UNL11       0.1375
     38 H           4.5320   -2.9266   -3.6746 H       1  UNL11       0.0678
     39 H           1.8789   -2.7525   -3.7802 H       1  UNL11       0.0678
     40 H           1.1620   -0.7192   -2.3277 H       1  UNL11       0.1375
@<TRIPOS>BOND
     1     1     2    2
     2     2     3    1
     3     2    22   am
     4     3     4   ar
     5     4     5   ar
     6     4    27    1
     7     5     6    1
     8     5    18   ar
     9     6     7    1
    10     6    28    1
    11     6    29    1
    12     7     8    2
    13     8     9    1
    14     9    10   am
    15     9    30    1
    16    10    11    2
    17    10    12    1
    18    12    13   ar
    19    13    14   ar
    20    13    31    1
    21    14    15   ar
    22    14    32    1
    23    15    16   ar
    24    15    33    1
    25    16    17   ar
    26    16    34    1
    27    17     7    1
    28    17    12   ar
    29    18    19   ar
    30    18    35    1
    31    19    20   ar
    32    19    36    1
    33    20    21    1
    34    20     3   ar
    35    22    23    1
    36    23    24    2
    37    23    37    1
    38    24    25    1
    39    24    38    1
    40    25    26    2
    41    25    39    1
    42    26    22    1
    43    26    40    1
@<TRIPOS>MOLECULE
*****
 40 43 0 0 0
SMALL
GASTEIGER

@<TRIPOS>ATOM
      1 O           3.1860   -0.3260   -1.8091 O.2     1  UNL11      -0.2135
      2 C           3.3898    0.6774   -1.0871 C.2     1  UNL11       0.4231
      3 C           2.2905    1.1756   -0.2895 C.ar    1  UNL11       0.1249
      4 C           0.9708    1.0090   -0.7399 C.ar    1  UNL11      -0.0384
      5 C          -0.1132    1.4847   -0.0486 C.ar    1  UNL11      -0.0403
      6 C          -1.5104    1.3321   -0.5163 C.3     1  UNL11       0.0211
      7 C          -2.2881    0.5663    0.4898 C.2     1  UNL11       0.1192
      8 N          -3.3680    1.0847    1.0961 N.2     1  UNL11      -0.0073
      9 N          -4.0766    0.4173    1.9958 N.am    1  UNL11      -0.0356
     10 C          -3.6751   -0.8302    2.2956 C.2     1  UNL11       0.4383
     11 O          -4.3540   -1.4602    3.1531 O.2     1  UNL11      -0.2116
     12 C          -2.5847   -1.4263    1.7195 C.ar    1  UNL11       0.1004
     13 C          -2.1697   -2.7154    2.0305 C.ar    1  UNL11      -0.0441
     14 C          -1.0640   -3.2612    1.4183 C.ar    1  UNL11      -0.0608
     15 C          -0.3200   -2.5764    0.4817 C.ar    1  UNL11      -0.0611
     16 C          -0.7465   -1.2897    0.1813 C.ar    1  UNL11      -0.0518
     17 C          -1.8534   -0.7305    0.7875 C.ar    1  UNL11       0.0192
     18 C           0.1182    2.1564    1.1445 C.ar    1  UNL11      -0.0555
     19 C           1.3829    2.3508    1.6353 C.ar    1  UNL11      -0.0253
     20 C           2.4481    1.8595    0.9128 C.ar    1  UNL11       0.1403
     21 F           3.7403    2.0620    1.3421 F       1  UNL11      -0.2045
     22 N           4.6567    1.2831   -1.0679 N.am    1  UNL11      -0.1060
     23 C           5.5759    1.1055   -2.0569 C.2     1  UNL11       0.1734
     24 C           6.7304    1.7812   -1.7750 C.2     1  UNL11       0.0074
     25 C           6.5305    2.3997   -0.5753 C.2     1  UNL11       0.0074
     26 C           5.2463    2.0731   -0.1676 C.2     1  UNL11       0.1734
     27 H           0.8173    0.4805   -1.6727 H       1  UNL11       0.0630
     28 H          -1.9420    2.3711   -0.6093 H       1  UNL11       0.0379
     29 H          -1.5499    0.8574   -1.5187 H       1  UNL11       0.0379
     30 H          -4.8949    0.9051    2.4080 H       1  UNL11       0.4829
     31 H          -2.7431   -3.2570    2.7584 H       1  UNL11       0.0627
     32 H          -0.7432   -4.2632    1.6620 H       1  UNL11       0.0618
     33 H           0.5504   -2.9876   -0.0095 H       1  UNL11       0.0618
     34 H          -0.2116   -0.6924   -0.5434 H       1  UNL11       0.0624
     35 H          -0.7169    2.5376    1.7047 H       1  UNL11       0.0621
     36 H           1.5736    2.8675    2.5536 H       1  UNL11       0.0646
     37 H           5.4288    0.5125   -2.9533 H       1  UNL11       0.1375
     38 H           7.6344    1.8295   -2.3694 H       1  UNL11       0.0678
     39 H           7.2192    3.0261   -0.0294 H       1  UNL11       0.0678
     40 H           4.8193    2.4107    0.7580 H       1  UNL11       0.1375
@<TRIPOS>BOND
     1     1     2    2
     2     2     3    1
     3     2    22   am
     4     3     4   ar
     5     4     5   ar
     6     4    27    1
     7     5     6    1
     8     5    18   ar
     9     6     7    1
    10     6    28    1
    11     6    29    1
    12     7     8    2
    13     8     9    1
    14     9    10   am
    15     9    30    1
    16    10    11    2
    17    10    12    1
    18    12    13   ar
    19    13    14   ar
    20    13    31    1
    21    14    15   ar
    22    14    32    1
    23    15    16   ar
    24    15    33    1
    25    16    17   ar
    26    16    34    1
    27    17     7    1
    28    17    12   ar
    29    18    19   ar
    30    18    35    1
    31    19    20   ar
    32    19    36    1
    33    20    21    1
    34    20     3   ar
    35    22    23    1
    36    23    24    2
    37    23    37    1
    38    24    25    1
    39    24    38    1
    40    25    26    2
    41    25    39    1
    42    26    22    1
    43    26    40    1
@<TRIPOS>MOLECULE
*****
 40 43 0 0 0
SMALL
GASTEIGER

@<TRIPOS>ATOM
      1 O           3.2428    0.6341   -2.3306 O.2     1  UNL11      -0.2135
      2 C           3.3898    0.6774   -1.0871 C.2     1  UNL11       0.4231
      3 C           2.2905    1.1756   -0.2895 C.ar    1  UNL11       0.1249
      4 C           0.9708    1.0090   -0.7399 C.ar    1  UNL11      -0.0384
      5 C          -0.1132    1.4847   -0.0486 C.ar    1  UNL11      -0.0403
      6 C          -1.5104    1.3321   -0.5163 C.3     1  UNL11       0.0211
      7 C          -2.1208    2.6730   -0.6975 C.2     1  UNL11       0.1192
      8 N          -3.4355    2.8832   -0.5246 N.2     1  UNL11      -0.0073
      9 N          -3.9997    4.0725   -0.6802 N.am    1  UNL11      -0.0356
     10 C          -3.1984    5.0950   -1.0260 C.2     1  UNL11       0.4383
     11 O          -3.7418    6.2247   -1.1728 O.2     1  UNL11      -0.2116
     12 C          -1.8492    4.9587   -1.2199 C.ar    1  UNL11       0.1004
     13 C          -1.0217    6.0158   -1.5782 C.ar    1  UNL11      -0.0441
     14 C           0.3284    5.8168   -1.7601 C.ar    1  UNL11      -0.0608
     15 C           0.9253    4.5848   -1.6011 C.ar    1  UNL11      -0.0611
     16 C           0.0861    3.5383   -1.2432 C.ar    1  UNL11      -0.0518
     17 C          -1.2691    3.7239   -1.0575 C.ar    1  UNL11       0.0192
     18 C           0.1182    2.1564    1.1445 C.ar    1  UNL11      -0.0555
     19 C           1.3829    2.3508    1.6353 C.ar    1  UNL11      -0.0253
     20 C           2.4481    1.8595    0.9128 C.ar    1  UNL11       0.1403
     21 F           3.7403    2.0620    1.3421 F       1  UNL11      -0.2045
     22 N           4.5947    0.2482   -0.5070 N.am    1  UNL11      -0.1060
     23 C           4.6615   -0.3000    0.7377 C.2     1  UNL11       0.1734
     24 C           5.9537   -0.6003    1.0682 C.2     1  UNL11       0.0074
     25 C           6.7191   -0.2298    0.0013 C.2     1  UNL11       0.0074
     26 C           5.8535    0.2883   -0.9497 C.2     1  UNL11       0.1734
     27 H           0.8173    0.4805   -1.6727 H       1  UNL11       0.0630
     28 H          -1.4683    0.8038   -1.5131 H       1  UNL11       0.0379
     29 H          -2.1008    0.6992    0.1785 H       1  UNL11       0.0379
     30 H          -5.0241    4.1325   -0.5240 H       1  UNL11       0.4829
     31 H          -1.4774    6.9794   -1.7039 H       1  UNL11       0.0627
     32 H           0.9694    6.6400   -2.0389 H       1  UNL11       0.0618
     33 H           1.9827    4.4088   -1.7392 H       1  UNL11       0.0618
     34 H           0.4838    2.5433   -1.1015 H       1  UNL11       0.0624
     35 H          -0.7169    2.5376    1.7047 H       1  UNL11       0.0621
     36 H           1.5736    2.8675    2.5536 H       1  UNL11       0.0646
     37 H           3.8151   -0.4813    1.3916 H       1  UNL11       0.1375
     38 H           6.3192   -1.0431    1.9865 H       1  UNL11       0.0678
     39 H           7.7896   -0.3132   -0.1076 H       1  UNL11       0.0678
     40 H           6.1825    0.6761   -1.8954 H       1  UNL11       0.1375
@<TRIPOS>BOND
     1     1     2    2
     2     2     3    1
     3     2    22   am
     4     3     4   ar
     5     4     5   ar
     6     4    27    1
     7     5     6    1
     8     5    18   ar
     9     6     7    1
    10     6    28    1
    11     6    29    1
    12     7     8    2
    13     8     9    1
    14     9    10   am
    15     9    30    1
    16    10    11    2
    17    10    12    1
    18    12    13   ar
    19    13    14   ar
    20    13    31    1
    21    14    15   ar
    22    14    32    1
    23    15    16   ar
    24    15    33    1
    25    16    17   ar
    26    16    34    1
    27    17     7    1
    28    17    12   ar
    29    18    19   ar
    30    18    35    1
    31    19    20   ar
    32    19    36    1
    33    20    21    1
    34    20     3   ar
    35    22    23    1
    36    23    24    2
    37    23    37    1
    38    24    25    1
    39    24    38    1
    40    25    26    2
    41    25    39    1
    42    26    22    1
    43    26    40    1
@<TRIPOS>MOLECULE
*****
 40 43 0 0 0
SMALL
GASTEIGER

@<TRIPOS>ATOM
      1 O           4.5530    0.8316   -0.6480 O.2     1  UNL11      -0.2135
      2 C           3.3898    0.6774   -1.0871 C.2     1  UNL11       0.4231
      3 C           2.2905    1.1756   -0.2895 C.ar    1  UNL11       0.1249
      4 C           0.9708    1.0090   -0.7399 C.ar    1  UNL11      -0.0384
      5 C          -0.1132    1.4847   -0.0486 C.ar    1  UNL11      -0.0403
      6 C          -1.5104    1.3321   -0.5163 C.3     1  UNL11       0.0211
      7 C          -1.8389   -0.1109   -0.6312 C.2     1  UNL11       0.1192
      8 N          -1.1483   -0.9337   -1.4366 N.2     1  UNL11      -0.0073
      9 N          -1.4247   -2.2249   -1.5525 N.am    1  UNL11      -0.0356
     10 C          -2.4450   -2.7055   -0.8209 C.2     1  UNL11       0.4383
     11 O          -2.7031   -3.9356   -0.9360 O.2     1  UNL11      -0.2116
     12 C          -3.1950   -1.9289    0.0222 C.ar    1  UNL11       0.1004
     13 C          -4.2501   -2.4261    0.7773 C.ar    1  UNL11      -0.0441
     14 C          -4.9687   -1.5955    1.6074 C.ar    1  UNL11      -0.0608
     15 C          -4.6901   -0.2518    1.7354 C.ar    1  UNL11      -0.0611
     16 C          -3.6335    0.2306    0.9749 C.ar    1  UNL11      -0.0518
     17 C          -2.9047   -0.5911    0.1388 C.ar    1  UNL11       0.0192
     18 C           0.1182    2.1564    1.1445 C.ar    1  UNL11      -0.0555
     19 C           1.3829    2.3508    1.6353 C.ar    1  UNL11      -0.0253
     20 C           2.4481    1.8595    0.9128 C.ar    1  UNL11       0.1403
     21 F           3.7403    2.0620    1.3421 F       1  UNL11      -0.2045
     22 N           3.1837    0.0381   -2.3205 N.am    1  UNL11      -0.1060
     23 C           2.0663   -0.6890   -2.5984 C.2     1  UNL11       0.1734
     24 C           2.1350   -1.2257   -3.8539 C.2     1  UNL11       0.0074
     25 C           3.3290   -0.8245   -4.3784 C.2     1  UNL11       0.0074
     26 C           3.9493   -0.0496   -3.4106 C.2     1  UNL11       0.1734
     27 H           0.8173    0.4805   -1.6727 H       1  UNL11       0.0630
     28 H          -2.1732    1.8043    0.2662 H       1  UNL11       0.0379
     29 H          -1.6764    1.8716   -1.4719 H       1  UNL11       0.0379
     30 H          -0.8326   -2.7774   -2.2018 H       1  UNL11       0.4829
     31 H          -4.4743   -3.4716    0.6847 H       1  UNL11       0.0627
     32 H          -5.7885   -1.9843    2.1930 H       1  UNL11       0.0618
     33 H          -5.2423    0.4159    2.3814 H       1  UNL11       0.0618
     34 H          -3.3577    1.2746    1.0234 H       1  UNL11       0.0624
     35 H          -0.7169    2.5376    1.7047 H       1  UNL11       0.0621
     36 H           1.5736    2.8675    2.5536 H       1  UNL11       0.0646
     37 H           1.2264   -0.8331   -1.9271 H       1  UNL11       0.1375
     38 H           1.4013   -1.8473   -4.3521 H       1  UNL11       0.0678
     39 H           3.7347   -1.0508   -5.3525 H       1  UNL11       0.0678
     40 H           4.9193    0.3915   -3.5430 H       1  UNL11       0.1375
@<TRIPOS>BOND
     1     1     2    2
     2     2     3    1
     3     2    22   am
     4     3     4   ar
     5     4     5   ar
     6     4    27    1
     7     5     6    1
     8     5    18   ar
     9     6     7    1
    10     6    28    1
    11     6    29    1
    12     7     8    2
    13     8     9    1
    14     9    10   am
    15     9    30    1
    16    10    11    2
    17    10    12    1
    18    12    13   ar
    19    13    14   ar
    20    13    31    1
    21    14    15   ar
    22    14    32    1
    23    15    16   ar
    24    15    33    1
    25    16    17   ar
    26    16    34    1
    27    17     7    1
    28    17    12   ar
    29    18    19   ar
    30    18    35    1
    31    19    20   ar
    32    19    36    1
    33    20    21    1
    34    20     3   ar
    35    22    23    1
    36    23    24    2
    37    23    37    1
    38    24    25    1
    39    24    38    1
    40    25    26    2
    41    25    39    1
    42    26    22    1
    43    26    40    1
@<TRIPOS>MOLECULE
*****
 40 43 0 0 0
SMALL
GASTEIGER

@<TRIPOS>ATOM
      1 O           4.5530    0.8316   -0.6480 O.2     1  UNL11      -0.2135
      2 C           3.3898    0.6774   -1.0871 C.2     1  UNL11       0.4231
      3 C           2.2905    1.1756   -0.2895 C.ar    1  UNL11       0.1249
      4 C           0.9708    1.0090   -0.7399 C.ar    1  UNL11      -0.0384
      5 C          -0.1132    1.4847   -0.0486 C.ar    1  UNL11      -0.0403
      6 C          -1.5104    1.3321   -0.5163 C.3     1  UNL11       0.0211
      7 C          -1.6619    1.9812   -1.8426 C.2     1  UNL11       0.1192
      8 N          -0.6412    2.0680   -2.7106 N.2     1  UNL11      -0.0073
      9 N          -0.7561    2.6421   -3.8998 N.am    1  UNL11      -0.0356
     10 C          -1.9568    3.1511   -4.2258 C.2     1  UNL11       0.4383
     11 O          -2.0594    3.6965   -5.3594 O.2     1  UNL11      -0.2116
     12 C          -3.0441    3.1007   -3.3941 C.ar    1  UNL11       0.1004
     13 C          -4.2847    3.6278   -3.7313 C.ar    1  UNL11      -0.0441
     14 C          -5.3412    3.5477   -2.8523 C.ar    1  UNL11      -0.0608
     15 C          -5.2330    2.9532   -1.6136 C.ar    1  UNL11      -0.0611
     16 C          -3.9877    2.4312   -1.2905 C.ar    1  UNL11      -0.0518
     17 C          -2.9201    2.5046   -2.1625 C.ar    1  UNL11       0.0192
     18 C           0.1182    2.1564    1.1445 C.ar    1  UNL11      -0.0555
     19 C           1.3829    2.3508    1.6353 C.ar    1  UNL11      -0.0253
     20 C           2.4481    1.8595    0.9128 C.ar    1  UNL11       0.1403
     21 F           3.7403    2.0620    1.3421 F       1  UNL11      -0.2045
     22 N           3.1837    0.0381   -2.3205 N.am    1  UNL11      -0.1060
     23 C           4.2046   -0.4365   -3.0866 C.2     1  UNL11       0.1734
     24 C           3.7292   -0.9835   -4.2458 C.2     1  UNL11       0.0074
     25 C           2.3721   -0.8480   -4.2063 C.2     1  UNL11       0.0074
     26 C           2.0692   -0.2161   -3.0101 C.2     1  UNL11       0.1734
     27 H           0.8173    0.4805   -1.6727 H       1  UNL11       0.0630
     28 H          -1.7044    0.2247   -0.6188 H       1  UNL11       0.0379
     29 H          -2.2300    1.7353    0.2263 H       1  UNL11       0.0379
     30 H           0.0914    2.6592   -4.4989 H       1  UNL11       0.4829
     31 H          -4.3790    4.0924   -4.6943 H       1  UNL11       0.0627
     32 H          -6.3044    3.9585   -3.1166 H       1  UNL11       0.0618
     33 H          -6.0503    2.8805   -0.9102 H       1  UNL11       0.0618
     34 H          -3.8280    1.9507   -0.3356 H       1  UNL11       0.0624
     35 H          -0.7169    2.5376    1.7047 H       1  UNL11       0.0621
     36 H           1.5736    2.8675    2.5536 H       1  UNL11       0.0646
     37 H           5.2573   -0.3949   -2.8278 H       1  UNL11       0.1375
     38 H           4.2971   -1.4380   -5.0482 H       1  UNL11       0.0678
     39 H           1.6525   -1.1628   -4.9465 H       1  UNL11       0.0678
     40 H           1.0680    0.0360   -2.7151 H       1  UNL11       0.1375
@<TRIPOS>BOND
     1     1     2    2
     2     2     3    1
     3     2    22   am
     4     3     4   ar
     5     4     5   ar
     6     4    27    1
     7     5     6    1
     8     5    18   ar
     9     6     7    1
    10     6    28    1
    11     6    29    1
    12     7     8    2
    13     8     9    1
    14     9    10   am
    15     9    30    1
    16    10    11    2
    17    10    12    1
    18    12    13   ar
    19    13    14   ar
    20    13    31    1
    21    14    15   ar
    22    14    32    1
    23    15    16   ar
    24    15    33    1
    25    16    17   ar
    26    16    34    1
    27    17     7    1
    28    17    12   ar
    29    18    19   ar
    30    18    35    1
    31    19    20   ar
    32    19    36    1
    33    20    21    1
    34    20     3   ar
    35    22    23    1
    36    23    24    2
    37    23    37    1
    38    24    25    1
    39    24    38    1
    40    25    26    2
    41    25    39    1
    42    26    22    1
    43    26    40    1
@<TRIPOS>MOLECULE
*****
 40 43 0 0 0
SMALL
GASTEIGER

@<TRIPOS>ATOM
      1 O           3.1206    0.1057   -2.1689 O.2     1  UNL11      -0.2135
      2 C           3.3898    0.6774   -1.0871 C.2     1  UNL11       0.4231
      3 C           2.2905    1.1756   -0.2895 C.ar    1  UNL11       0.1249
      4 C           0.9708    1.0090   -0.7399 C.ar    1  UNL11      -0.0384
      5 C          -0.1132    1.4847   -0.0486 C.ar    1  UNL11      -0.0403
      6 C          -1.5104    1.3321   -0.5163 C.3     1  UNL11       0.0211
      7 C          -2.4305    1.9731    0.4562 C.2     1  UNL11       0.1192
      8 N          -3.6808    1.5246    0.6516 N.2     1  UNL11      -0.0073
      9 N          -4.5174    2.0818    1.5158 N.am    1  UNL11      -0.0356
     10 C          -4.0693    3.1398    2.2136 C.2     1  UNL11       0.4383
     11 O          -4.8707    3.6659    3.0346 O.2     1  UNL11      -0.2116
     12 C          -2.8079    3.6541    2.0696 C.ar    1  UNL11       0.1004
     13 C          -2.3456    4.7483    2.7906 C.ar    1  UNL11      -0.0441
     14 C          -1.0666    5.2209    2.6015 C.ar    1  UNL11      -0.0608
     15 C          -0.1887    4.6495    1.7058 C.ar    1  UNL11      -0.0611
     16 C          -0.6644    3.5573    0.9926 C.ar    1  UNL11      -0.0518
     17 C          -1.9445    3.0731    1.1726 C.ar    1  UNL11       0.0192
     18 C           0.1182    2.1564    1.1445 C.ar    1  UNL11      -0.0555
     19 C           1.3829    2.3508    1.6353 C.ar    1  UNL11      -0.0253
     20 C           2.4481    1.8595    0.9128 C.ar    1  UNL11       0.1403
     21 F           3.7403    2.0620    1.3421 F       1  UNL11      -0.2045
     22 N           4.7268    0.8175   -0.6806 N.am    1  UNL11      -0.1060
     23 C           5.1633    1.8616    0.0770 C.2     1  UNL11       0.1734
     24 C           6.5085    1.7695    0.3031 C.2     1  UNL11       0.0074
     25 C           6.9279    0.6363   -0.3306 C.2     1  UNL11       0.0074
     26 C           5.8087    0.0748   -0.9256 C.2     1  UNL11       0.1734
     27 H           0.8173    0.4805   -1.6727 H       1  UNL11       0.0630
     28 H          -1.5859    1.8655   -1.5084 H       1  UNL11       0.0379
     29 H          -1.7644    0.2649   -0.6847 H       1  UNL11       0.0379
     30 H          -5.4633    1.6617    1.5942 H       1  UNL11       0.4829
     31 H          -3.0220    5.1999    3.4911 H       1  UNL11       0.0627
     32 H          -0.7098    6.0718    3.1628 H       1  UNL11       0.0618
     33 H           0.8187    5.0059    1.5435 H       1  UNL11       0.0618
     34 H          -0.0322    3.0584    0.2719 H       1  UNL11       0.0624
     35 H          -0.7169    2.5376    1.7047 H       1  UNL11       0.0621
     36 H           1.5736    2.8675    2.5536 H       1  UNL11       0.0646
     37 H           4.5423    2.6653    0.4579 H       1  UNL11       0.1375
     38 H           7.1355    2.4481    0.8681 H       1  UNL11       0.0678
     39 H           7.9280    0.2330   -0.3751 H       1  UNL11       0.0678
     40 H           5.8425   -0.8250   -1.5107 H       1  UNL11       0.1375
@<TRIPOS>BOND
     1     1     2    2
     2     2     3    1
     3     2    22   am
     4     3     4   ar
     5     4     5   ar
     6     4    27    1
     7     5     6    1
     8     5    18   ar
     9     6     7    1
    10     6    28    1
    11     6    29    1
    12     7     8    2
    13     8     9    1
    14     9    10   am
    15     9    30    1
    16    10    11    2
    17    10    12    1
    18    12    13   ar
    19    13    14   ar
    20    13    31    1
    21    14    15   ar
    22    14    32    1
    23    15    16   ar
    24    15    33    1
    25    16    17   ar
    26    16    34    1
    27    17     7    1
    28    17    12   ar
    29    18    19   ar
    30    18    35    1
    31    19    20   ar
    32    19    36    1
    33    20    21    1
    34    20     3   ar
    35    22    23    1
    36    23    24    2
    37    23    37    1
    38    24    25    1
    39    24    38    1
    40    25    26    2
    41    25    39    1
    42    26    22    1
    43    26    40    1
@<TRIPOS>MOLECULE
*****
 40 43 0 0 0
SMALL
GASTEIGER

@<TRIPOS>ATOM
      1 O           4.4846    1.2834   -1.0246 O.2     1  UNL11      -0.2135
      2 C           3.3898    0.6774   -1.0871 C.2     1  UNL11       0.4231
      3 C           2.2905    1.1756   -0.2895 C.ar    1  UNL11       0.1249
      4 C           0.9708    1.0090   -0.7399 C.ar    1  UNL11      -0.0384
      5 C          -0.1132    1.4847   -0.0486 C.ar    1  UNL11      -0.0403
      6 C          -1.5104    1.3321   -0.5163 C.3     1  UNL11       0.0211
      7 C          -1.6619    1.9812   -1.8426 C.2     1  UNL11       0.1192
      8 N          -2.5423    1.5365   -2.7535 N.2     1  UNL11      -0.0073
      9 N          -2.6938    2.1025   -3.9426 N.am    1  UNL11      -0.0356
     10 C          -1.9204    3.1658   -4.2227 C.2     1  UNL11       0.4383
     11 O          -2.0694    3.6999   -5.3565 O.2     1  UNL11      -0.2116
     12 C          -1.0007    3.6767   -3.3456 C.ar    1  UNL11       0.1004
     13 C          -0.2010    4.7752   -3.6362 C.ar    1  UNL11      -0.0441
     14 C           0.7072    5.2431   -2.7134 C.ar    1  UNL11      -0.0608
     15 C           0.8731    4.6623   -1.4745 C.ar    1  UNL11      -0.0611
     16 C           0.0674    3.5658   -1.1984 C.ar    1  UNL11      -0.0518
     17 C          -0.8473    3.0866   -2.1144 C.ar    1  UNL11       0.0192
     18 C           0.1182    2.1564    1.1445 C.ar    1  UNL11      -0.0555
     19 C           1.3829    2.3508    1.6353 C.ar    1  UNL11      -0.0253
     20 C           2.4481    1.8595    0.9128 C.ar    1  UNL11       0.1403
     21 F           3.7403    2.0620    1.3421 F       1  UNL11      -0.2045
     22 N           3.2570   -0.4491   -1.9152 N.am    1  UNL11      -0.1060
     23 C           4.1049   -0.7112   -2.9480 C.2     1  UNL11       0.1734
     24 C           3.7319   -1.8498   -3.6066 C.2     1  UNL11       0.0074
     25 C           2.6186   -2.3148   -2.9696 C.2     1  UNL11       0.0074
     26 C           2.3528   -1.4312   -1.9349 C.2     1  UNL11       0.1734
     27 H           0.8173    0.4805   -1.6727 H       1  UNL11       0.0630
     28 H          -1.7044    0.2247   -0.6188 H       1  UNL11       0.0379
     29 H          -2.2300    1.7353    0.2263 H       1  UNL11       0.0379
     30 H          -3.4010    1.6846   -4.5770 H       1  UNL11       0.4829
     31 H          -0.3233    5.2347   -4.5985 H       1  UNL11       0.0627
     32 H           1.3279    6.0968   -2.9418 H       1  UNL11       0.0618
     33 H           1.5801    5.0150   -0.7371 H       1  UNL11       0.0618
     34 H           0.1426    3.0588   -0.2469 H       1  UNL11       0.0624
     35 H          -0.7169    2.5376    1.7047 H       1  UNL11       0.0621
     36 H           1.5736    2.8675    2.5536 H       1  UNL11       0.0646
     37 H           4.9643   -0.1098   -3.2246 H       1  UNL11       0.1375
     38 H           4.2090   -2.3083   -4.4639 H       1  UNL11       0.0678
     39 H           2.0398   -3.1951   -3.2038 H       1  UNL11       0.0678
     40 H           1.5176   -1.5394   -1.2688 H       1  UNL11       0.1375
@<TRIPOS>BOND
     1     1     2    2
     2     2     3    1
     3     2    22   am
     4     3     4   ar
     5     4     5   ar
     6     4    27    1
     7     5     6    1
     8     5    18   ar
     9     6     7    1
    10     6    28    1
    11     6    29    1
    12     7     8    2
    13     8     9    1
    14     9    10   am
    15     9    30    1
    16    10    11    2
    17    10    12    1
    18    12    13   ar
    19    13    14   ar
    20    13    31    1
    21    14    15   ar
    22    14    32    1
    23    15    16   ar
    24    15    33    1
    25    16    17   ar
    26    16    34    1
    27    17     7    1
    28    17    12   ar
    29    18    19   ar
    30    18    35    1
    31    19    20   ar
    32    19    36    1
    33    20    21    1
    34    20     3   ar
    35    22    23    1
    36    23    24    2
    37    23    37    1
    38    24    25    1
    39    24    38    1
    40    25    26    2
    41    25    39    1
    42    26    22    1
    43    26    40    1
@<TRIPOS>MOLECULE
*****
 40 43 0 0 0
SMALL
GASTEIGER

@<TRIPOS>ATOM
      1 O           3.2428    0.6341   -2.3306 O.2     1  UNL11      -0.2135
      2 C           3.3898    0.6774   -1.0871 C.2     1  UNL11       0.4231
      3 C           2.2905    1.1756   -0.2895 C.ar    1  UNL11       0.1249
      4 C           0.9708    1.0090   -0.7399 C.ar    1  UNL11      -0.0384
      5 C          -0.1132    1.4847   -0.0486 C.ar    1  UNL11      -0.0403
      6 C          -1.5104    1.3321   -0.5163 C.3     1  UNL11       0.0211
      7 C          -2.1208    2.6730   -0.6975 C.2     1  UNL11       0.1192
      8 N          -3.0716    2.9011   -1.6175 N.2     1  UNL11      -0.0073
      9 N          -3.6300    4.0902   -1.7943 N.am    1  UNL11      -0.0356
     10 C          -3.2080    5.0934   -1.0052 C.2     1  UNL11       0.4383
     11 O          -3.7435    6.2231   -1.1787 O.2     1  UNL11      -0.2116
     12 C          -2.2432    4.9381   -0.0453 C.ar    1  UNL11       0.1004
     13 C          -1.8068    5.9756    0.7694 C.ar    1  UNL11      -0.0441
     14 C          -0.8322    5.7585    1.7171 C.ar    1  UNL11      -0.0608
     15 C          -0.2448    4.5265    1.9093 C.ar    1  UNL11      -0.0611
     16 C          -0.6907    3.4997    1.0881 C.ar    1  UNL11      -0.0518
     17 C          -1.6674    3.7037    0.1341 C.ar    1  UNL11       0.0192
     18 C           0.1182    2.1564    1.1445 C.ar    1  UNL11      -0.0555
     19 C           1.3829    2.3508    1.6353 C.ar    1  UNL11      -0.0253
     20 C           2.4481    1.8595    0.9128 C.ar    1  UNL11       0.1403
     21 F           3.7403    2.0620    1.3421 F       1  UNL11      -0.2045
     22 N           4.5947    0.2482   -0.5070 N.am    1  UNL11      -0.1060
     23 C           5.0854    0.7719    0.6503 C.2     1  UNL11       0.1734
     24 C           6.2833    0.1981    0.9743 C.2     1  UNL11       0.0074
     25 C           6.5520   -0.7107   -0.0073 C.2     1  UNL11       0.0074
     26 C           5.4948   -0.6549   -0.9024 C.2     1  UNL11       0.1734
     27 H           0.8173    0.4805   -1.6727 H       1  UNL11       0.0630
     28 H          -1.4683    0.8038   -1.5131 H       1  UNL11       0.0379
     29 H          -2.1008    0.6992    0.1785 H       1  UNL11       0.0379
     30 H          -4.3566    4.1650   -2.5318 H       1  UNL11       0.4829
     31 H          -2.2588    6.9388    0.6276 H       1  UNL11       0.0627
     32 H          -0.4944    6.5666    2.3488 H       1  UNL11       0.0618
     33 H           0.5212    4.3364    2.6476 H       1  UNL11       0.0618
     34 H          -0.2751    2.5063    1.1812 H       1  UNL11       0.0624
     35 H          -0.7169    2.5376    1.7047 H       1  UNL11       0.0621
     36 H           1.5736    2.8675    2.5536 H       1  UNL11       0.0646
     37 H           4.6047    1.5398    1.2469 H       1  UNL11       0.1375
     38 H           6.9102    0.4076    1.8322 H       1  UNL11       0.0678
     39 H           7.4106   -1.3588   -0.0939 H       1  UNL11       0.0678
     40 H           5.4439   -1.2559   -1.7909 H       1  UNL11       0.1375
@<TRIPOS>BOND
     1     1     2    2
     2     2     3    1
     3     2    22   am
     4     3     4   ar
     5     4     5   ar
     6     4    27    1
     7     5     6    1
     8     5    18   ar
     9     6     7    1
    10     6    28    1
    11     6    29    1
    12     7     8    2
    13     8     9    1
    14     9    10   am
    15     9    30    1
    16    10    11    2
    17    10    12    1
    18    12    13   ar
    19    13    14   ar
    20    13    31    1
    21    14    15   ar
    22    14    32    1
    23    15    16   ar
    24    15    33    1
    25    16    17   ar
    26    16    34    1
    27    17     7    1
    28    17    12   ar
    29    18    19   ar
    30    18    35    1
    31    19    20   ar
    32    19    36    1
    33    20    21    1
    34    20     3   ar
    35    22    23    1
    36    23    24    2
    37    23    37    1
    38    24    25    1
    39    24    38    1
    40    25    26    2
    41    25    39    1
    42    26    22    1
    43    26    40    1
@<TRIPOS>MOLECULE
*****
 40 43 0 0 0
SMALL
GASTEIGER

@<TRIPOS>ATOM
      1 O           3.2428    0.6341   -2.3306 O.2     1  UNL11      -0.2135
      2 C           3.3898    0.6774   -1.0871 C.2     1  UNL11       0.4231
      3 C           2.2905    1.1756   -0.2895 C.ar    1  UNL11       0.1249
      4 C           0.9708    1.0090   -0.7399 C.ar    1  UNL11      -0.0384
      5 C          -0.1132    1.4847   -0.0486 C.ar    1  UNL11      -0.0403
      6 C          -1.5104    1.3321   -0.5163 C.3     1  UNL11       0.0211
      7 C          -1.5225    0.6041   -1.8098 C.2     1  UNL11       0.1192
      8 N          -2.6643    0.3415   -2.4654 N.2     1  UNL11      -0.0073
      9 N          -2.6966   -0.3058   -3.6217 N.am    1  UNL11      -0.0356
     10 C          -1.5214   -0.7052   -4.1381 C.2     1  UNL11       0.4383
     11 O          -1.5590   -1.3212   -5.2391 O.2     1  UNL11      -0.2116
     12 C          -0.3166   -0.4743   -3.5286 C.ar    1  UNL11       0.1004
     13 C           0.8976   -0.8882   -4.0624 C.ar    1  UNL11      -0.0441
     14 C           2.0772   -0.6275   -3.4024 C.ar    1  UNL11      -0.0608
     15 C           2.1224    0.0445   -2.1999 C.ar    1  UNL11      -0.0611
     16 C           0.9016    0.4517   -1.6787 C.ar    1  UNL11      -0.0518
     17 C          -0.2884    0.1970   -2.3302 C.ar    1  UNL11       0.0192
     18 C           0.1182    2.1564    1.1445 C.ar    1  UNL11      -0.0555
     19 C           1.3829    2.3508    1.6353 C.ar    1  UNL11      -0.0253
     20 C           2.4481    1.8595    0.9128 C.ar    1  UNL11       0.1403
     21 F           3.7403    2.0620    1.3421 F       1  UNL11      -0.2045
     22 N           4.5947    0.2482   -0.5070 N.am    1  UNL11      -0.1060
     23 C           5.7579    0.1481   -1.2080 C.2     1  UNL11       0.1734
     24 C           6.7662   -0.3208   -0.4127 C.2     1  UNL11       0.0074
     25 C           6.2204   -0.5211    0.8217 C.2     1  UNL11       0.0074
     26 C           4.8845   -0.1621    0.7299 C.2     1  UNL11       0.1734
     27 H           0.8173    0.4805   -1.6727 H       1  UNL11       0.0630
     28 H          -2.0531    0.7196    0.2614 H       1  UNL11       0.0379
     29 H          -2.0200    2.3153   -0.5901 H       1  UNL11       0.0379
     30 H          -3.6295   -0.4601   -4.0498 H       1  UNL11       0.4829
     31 H           0.8727   -1.4119   -4.9990 H       1  UNL11       0.0627
     32 H           3.0197   -0.9506   -3.8192 H       1  UNL11       0.0618
     33 H           3.0379    0.2586   -1.6670 H       1  UNL11       0.0618
     34 H           0.8593    0.9834   -0.7387 H       1  UNL11       0.0624
     35 H          -0.7169    2.5376    1.7047 H       1  UNL11       0.0621
     36 H           1.5736    2.8675    2.5536 H       1  UNL11       0.0646
     37 H           5.8853    0.4018   -2.2550 H       1  UNL11       0.1375
     38 H           7.7979   -0.5045   -0.6863 H       1  UNL11       0.0678
     39 H           6.7099   -0.8854    1.7119 H       1  UNL11       0.0678
     40 H           4.1988   -0.2317    1.5533 H       1  UNL11       0.1375
@<TRIPOS>BOND
     1     1     2    2
     2     2     3    1
     3     2    22   am
     4     3     4   ar
     5     4     5   ar
     6     4    27    1
     7     5     6    1
     8     5    18   ar
     9     6     7    1
    10     6    28    1
    11     6    29    1
    12     7     8    2
    13     8     9    1
    14     9    10   am
    15     9    30    1
    16    10    11    2
    17    10    12    1
    18    12    13   ar
    19    13    14   ar
    20    13    31    1
    21    14    15   ar
    22    14    32    1
    23    15    16   ar
    24    15    33    1
    25    16    17   ar
    26    16    34    1
    27    17     7    1
    28    17    12   ar
    29    18    19   ar
    30    18    35    1
    31    19    20   ar
    32    19    36    1
    33    20    21    1
    34    20     3   ar
    35    22    23    1
    36    23    24    2
    37    23    37    1
    38    24    25    1
    39    24    38    1
    40    25    26    2
    41    25    39    1
    42    26    22    1
    43    26    40    1
@<TRIPOS>MOLECULE
*****
 40 43 0 0 0
SMALL
GASTEIGER

@<TRIPOS>ATOM
      1 O           4.5530    0.8316   -0.6480 O.2     1  UNL11      -0.2135
      2 C           3.3898    0.6774   -1.0871 C.2     1  UNL11       0.4231
      3 C           2.2905    1.1756   -0.2895 C.ar    1  UNL11       0.1249
      4 C           0.9708    1.0090   -0.7399 C.ar    1  UNL11      -0.0384
      5 C          -0.1132    1.4847   -0.0486 C.ar    1  UNL11      -0.0403
      6 C          -1.5104    1.3321   -0.5163 C.3     1  UNL11       0.0211
      7 C          -1.8389   -0.1109   -0.6312 C.2     1  UNL11       0.1192
      8 N          -1.7968   -0.9345    0.4283 N.2     1  UNL11      -0.0073
      9 N          -2.0875   -2.2252    0.3471 N.am    1  UNL11      -0.0356
     10 C          -2.4367   -2.7043   -0.8594 C.2     1  UNL11       0.4383
     11 O          -2.7121   -3.9340   -0.9300 O.2     1  UNL11      -0.2116
     12 C          -2.5023   -1.9268   -1.9852 C.ar    1  UNL11       0.1004
     13 C          -2.8623   -2.4228   -3.2323 C.ar    1  UNL11      -0.0441
     14 C          -2.9097   -1.5916   -4.3287 C.ar    1  UNL11      -0.0608
     15 C          -2.6093   -0.2485   -4.2558 C.ar    1  UNL11      -0.0611
     16 C          -2.2512    0.2327   -3.0036 C.ar    1  UNL11      -0.0518
     17 C          -2.1999   -0.5896   -1.8961 C.ar    1  UNL11       0.0192
     18 C           0.1182    2.1564    1.1445 C.ar    1  UNL11      -0.0555
     19 C           1.3829    2.3508    1.6353 C.ar    1  UNL11      -0.0253
     20 C           2.4481    1.8595    0.9128 C.ar    1  UNL11       0.1403
     21 F           3.7403    2.0620    1.3421 F       1  UNL11      -0.2045
     22 N           3.1837    0.0381   -2.3205 N.am    1  UNL11      -0.1060
     23 C           4.1151   -0.7695   -2.8990 C.2     1  UNL11       0.1734
     24 C           3.6721   -1.2365   -4.1051 C.2     1  UNL11       0.0074
     25 C           2.4282   -0.7068   -4.2889 C.2     1  UNL11       0.0074
     26 C           2.1579    0.0719   -3.1742 C.2     1  UNL11       0.1734
     27 H           0.8173    0.4805   -1.6727 H       1  UNL11       0.0630
     28 H          -2.1732    1.8043    0.2662 H       1  UNL11       0.0379
     29 H          -1.6764    1.8716   -1.4719 H       1  UNL11       0.0379
     30 H          -2.0254   -2.7786    1.2231 H       1  UNL11       0.4829
     31 H          -3.0986   -3.4677   -3.2990 H       1  UNL11       0.0627
     32 H          -3.1894   -1.9796   -5.2969 H       1  UNL11       0.0618
     33 H          -2.6408    0.4197   -5.1047 H       1  UNL11       0.0618
     34 H          -2.0016    1.2759   -2.8704 H       1  UNL11       0.0624
     35 H          -0.7169    2.5376    1.7047 H       1  UNL11       0.0621
     36 H           1.5736    2.8675    2.5536 H       1  UNL11       0.0646
     37 H           5.0817   -1.0194   -2.4748 H       1  UNL11       0.1375
     38 H           4.1880   -1.8949   -4.7931 H       1  UNL11       0.0678
     39 H           1.7638   -0.8502   -5.1271 H       1  UNL11       0.0678
     40 H           1.2471    0.6272   -3.0514 H       1  UNL11       0.1375
@<TRIPOS>BOND
     1     1     2    2
     2     2     3    1
     3     2    22   am
     4     3     4   ar
     5     4     5   ar
     6     4    27    1
     7     5     6    1
     8     5    18   ar
     9     6     7    1
    10     6    28    1
    11     6    29    1
    12     7     8    2
    13     8     9    1
    14     9    10   am
    15     9    30    1
    16    10    11    2
    17    10    12    1
    18    12    13   ar
    19    13    14   ar
    20    13    31    1
    21    14    15   ar
    22    14    32    1
    23    15    16   ar
    24    15    33    1
    25    16    17   ar
    26    16    34    1
    27    17     7    1
    28    17    12   ar
    29    18    19   ar
    30    18    35    1
    31    19    20   ar
    32    19    36    1
    33    20    21    1
    34    20     3   ar
    35    22    23    1
    36    23    24    2
    37    23    37    1
    38    24    25    1
    39    24    38    1
    40    25    26    2
    41    25    39    1
    42    26    22    1
    43    26    40    1
@<TRIPOS>MOLECULE
*****
 40 43 0 0 0
SMALL
GASTEIGER

@<TRIPOS>ATOM
      1 O           4.4846    1.2834   -1.0246 O.2     1  UNL11      -0.2135
      2 C           3.3898    0.6774   -1.0871 C.2     1  UNL11       0.4231
      3 C           2.2905    1.1756   -0.2895 C.ar    1  UNL11       0.1249
      4 C           0.9708    1.0090   -0.7399 C.ar    1  UNL11      -0.0384
      5 C          -0.1132    1.4847   -0.0486 C.ar    1  UNL11      -0.0403
      6 C          -1.5104    1.3321   -0.5163 C.3     1  UNL11       0.0211
      7 C          -1.6298    0.0911   -1.3219 C.2     1  UNL11       0.1192
      8 N          -1.3640   -1.1189   -0.8042 N.2     1  UNL11      -0.0073
      9 N          -1.4657   -2.2388   -1.5060 N.am    1  UNL11      -0.0356
     10 C          -1.8536   -2.1302   -2.7885 C.2     1  UNL11       0.4383
     11 O          -1.9483   -3.2002   -3.4512 O.2     1  UNL11      -0.2116
     12 C          -2.1419   -0.9319   -3.3863 C.ar    1  UNL11       0.1004
     13 C          -2.5419   -0.8202   -4.7123 C.ar    1  UNL11      -0.0441
     14 C          -2.8174    0.4131   -5.2584 C.ar    1  UNL11      -0.0608
     15 C          -2.7149    1.5837   -4.5382 C.ar    1  UNL11      -0.0611
     16 C          -2.3141    1.4565   -3.2150 C.ar    1  UNL11      -0.0518
     17 C          -2.0350    0.2261   -2.6549 C.ar    1  UNL11       0.0192
     18 C           0.1182    2.1564    1.1445 C.ar    1  UNL11      -0.0555
     19 C           1.3829    2.3508    1.6353 C.ar    1  UNL11      -0.0253
     20 C           2.4481    1.8595    0.9128 C.ar    1  UNL11       0.1403
     21 F           3.7403    2.0620    1.3421 F       1  UNL11      -0.2045
     22 N           3.2570   -0.4491   -1.9152 N.am    1  UNL11      -0.1060
     23 C           4.3239   -1.1673   -2.3628 C.2     1  UNL11       0.1734
     24 C           3.9163   -2.1903   -3.1729 C.2     1  UNL11       0.0074
     25 C           2.5556   -2.1117   -3.2358 C.2     1  UNL11       0.0074
     26 C           2.1820   -1.0308   -2.4522 C.2     1  UNL11       0.1734
     27 H           0.8173    0.4805   -1.6727 H       1  UNL11       0.0630
     28 H          -2.1580    1.2429    0.4041 H       1  UNL11       0.0379
     29 H          -1.8457    2.2263   -1.0818 H       1  UNL11       0.0379
     30 H          -1.2382   -3.1249   -1.0155 H       1  UNL11       0.4829
     31 H          -2.6252   -1.7265   -5.2813 H       1  UNL11       0.0627
     32 H          -3.1278    0.4973   -6.2894 H       1  UNL11       0.0618
     33 H          -2.9268    2.5606   -4.9489 H       1  UNL11       0.0618
     34 H          -2.2111    2.3316   -2.5891 H       1  UNL11       0.0624
     35 H          -0.7169    2.5376    1.7047 H       1  UNL11       0.0621
     36 H           1.5736    2.8675    2.5536 H       1  UNL11       0.0646
     37 H           5.3623   -0.9690   -2.1195 H       1  UNL11       0.1375
     38 H           4.5320   -2.9266   -3.6746 H       1  UNL11       0.0678
     39 H           1.8789   -2.7525   -3.7802 H       1  UNL11       0.0678
     40 H           1.1620   -0.7192   -2.3277 H       1  UNL11       0.1375
@<TRIPOS>BOND
     1     1     2    2
     2     2     3    1
     3     2    22   am
     4     3     4   ar
     5     4     5   ar
     6     4    27    1
     7     5     6    1
     8     5    18   ar
     9     6     7    1
    10     6    28    1
    11     6    29    1
    12     7     8    2
    13     8     9    1
    14     9    10   am
    15     9    30    1
    16    10    11    2
    17    10    12    1
    18    12    13   ar
    19    13    14   ar
    20    13    31    1
    21    14    15   ar
    22    14    32    1
    23    15    16   ar
    24    15    33    1
    25    16    17   ar
    26    16    34    1
    27    17     7    1
    28    17    12   ar
    29    18    19   ar
    30    18    35    1
    31    19    20   ar
    32    19    36    1
    33    20    21    1
    34    20     3   ar
    35    22    23    1
    36    23    24    2
    37    23    37    1
    38    24    25    1
    39    24    38    1
    40    25    26    2
    41    25    39    1
    42    26    22    1
    43    26    40    1
@<TRIPOS>MOLECULE
*****
 40 43 0 0 0
SMALL
GASTEIGER

@<TRIPOS>ATOM
      1 O           3.2428    0.6341   -2.3306 O.2     1  UNL11      -0.2135
      2 C           3.3898    0.6774   -1.0871 C.2     1  UNL11       0.4231
      3 C           2.2905    1.1756   -0.2895 C.ar    1  UNL11       0.1249
      4 C           0.9708    1.0090   -0.7399 C.ar    1  UNL11      -0.0384
      5 C          -0.1132    1.4847   -0.0486 C.ar    1  UNL11      -0.0403
      6 C          -1.5104    1.3321   -0.5163 C.3     1  UNL11       0.0211
      7 C          -2.3206    2.4800   -0.0375 C.2     1  UNL11       0.1192
      8 N          -2.0340    3.1226    1.1059 N.2     1  UNL11      -0.0073
      9 N          -2.7438    4.1502    1.5502 N.am    1  UNL11      -0.0356
     10 C          -3.7902    4.5455    0.8046 C.2     1  UNL11       0.4383
     11 O          -4.4620    5.5243    1.2332 O.2     1  UNL11      -0.2116
     12 C          -4.1444    3.9404   -0.3722 C.ar    1  UNL11       0.1004
     13 C          -5.2266    4.3490   -1.1419 C.ar    1  UNL11      -0.0441
     14 C          -5.5343    3.7002   -2.3165 C.ar    1  UNL11      -0.0608
     15 C          -4.8034    2.6309   -2.7876 C.ar    1  UNL11      -0.0611
     16 C          -3.7253    2.2340   -2.0080 C.ar    1  UNL11      -0.0518
     17 C          -3.4056    2.8757   -0.8284 C.ar    1  UNL11       0.0192
     18 C           0.1182    2.1564    1.1445 C.ar    1  UNL11      -0.0555
     19 C           1.3829    2.3508    1.6353 C.ar    1  UNL11      -0.0253
     20 C           2.4481    1.8595    0.9128 C.ar    1  UNL11       0.1403
     21 F           3.7403    2.0620    1.3421 F       1  UNL11      -0.2045
     22 N           4.5947    0.2482   -0.5070 N.am    1  UNL11      -0.1060
     23 C           5.7579    0.1481   -1.2080 C.2     1  UNL11       0.1734
     24 C           6.7662   -0.3208   -0.4127 C.2     1  UNL11       0.0074
     25 C           6.2204   -0.5211    0.8217 C.2     1  UNL11       0.0074
     26 C           4.8845   -0.1621    0.7299 C.2     1  UNL11       0.1734
     27 H           0.8173    0.4805   -1.6727 H       1  UNL11       0.0630
     28 H          -1.4828    1.3402   -1.6449 H       1  UNL11       0.0379
     29 H          -1.9390    0.3603   -0.1943 H       1  UNL11       0.0379
     30 H          -2.4420    4.5798    2.4456 H       1  UNL11       0.4829
     31 H          -5.8017    5.1813   -0.7835 H       1  UNL11       0.0627
     32 H          -6.3763    4.0194   -2.9128 H       1  UNL11       0.0618
     33 H          -5.0290    2.1091   -3.7068 H       1  UNL11       0.0618
     34 H          -3.1068    1.4021   -2.3143 H       1  UNL11       0.0624
     35 H          -0.7169    2.5376    1.7047 H       1  UNL11       0.0621
     36 H           1.5736    2.8675    2.5536 H       1  UNL11       0.0646
     37 H           5.8853    0.4018   -2.2550 H       1  UNL11       0.1375
     38 H           7.7979   -0.5045   -0.6863 H       1  UNL11       0.0678
     39 H           6.7099   -0.8854    1.7119 H       1  UNL11       0.0678
     40 H           4.1988   -0.2317    1.5533 H       1  UNL11       0.1375
@<TRIPOS>BOND
     1     1     2    2
     2     2     3    1
     3     2    22   am
     4     3     4   ar
     5     4     5   ar
     6     4    27    1
     7     5     6    1
     8     5    18   ar
     9     6     7    1
    10     6    28    1
    11     6    29    1
    12     7     8    2
    13     8     9    1
    14     9    10   am
    15     9    30    1
    16    10    11    2
    17    10    12    1
    18    12    13   ar
    19    13    14   ar
    20    13    31    1
    21    14    15   ar
    22    14    32    1
    23    15    16   ar
    24    15    33    1
    25    16    17   ar
    26    16    34    1
    27    17     7    1
    28    17    12   ar
    29    18    19   ar
    30    18    35    1
    31    19    20   ar
    32    19    36    1
    33    20    21    1
    34    20     3   ar
    35    22    23    1
    36    23    24    2
    37    23    37    1
    38    24    25    1
    39    24    38    1
    40    25    26    2
    41    25    39    1
    42    26    22    1
    43    26    40    1
@<TRIPOS>MOLECULE
*****
 40 43 0 0 0
SMALL
GASTEIGER

@<TRIPOS>ATOM
      1 O           3.2428    0.6341   -2.3306 O.2     1  UNL11      -0.2135
      2 C           3.3898    0.6774   -1.0871 C.2     1  UNL11       0.4231
      3 C           2.2905    1.1756   -0.2895 C.ar    1  UNL11       0.1249
      4 C           0.9708    1.0090   -0.7399 C.ar    1  UNL11      -0.0384
      5 C          -0.1132    1.4847   -0.0486 C.ar    1  UNL11      -0.0403
      6 C          -1.5104    1.3321   -0.5163 C.3     1  UNL11       0.0211
      7 C          -2.1208    2.6730   -0.6975 C.2     1  UNL11       0.1192
      8 N          -2.0584    3.3285   -1.8675 N.2     1  UNL11      -0.0073
      9 N          -2.5977    4.5255   -2.0503 N.am    1  UNL11      -0.0356
     10 C          -3.2285    5.0844   -1.0030 C.2     1  UNL11       0.4383
     11 O          -3.7397    6.2242   -1.1835 O.2     1  UNL11      -0.2116
     12 C          -3.3334    4.4778    0.2207 C.ar    1  UNL11       0.1004
     13 C          -3.9847    5.0564    1.3032 C.ar    1  UNL11      -0.0441
     14 C          -4.0569    4.3977    2.5099 C.ar    1  UNL11      -0.0608
     15 C          -3.4997    3.1533    2.7110 C.ar    1  UNL11      -0.0611
     16 C          -2.8522    2.5878    1.6207 C.ar    1  UNL11      -0.0518
     17 C          -2.7727    3.2372    0.4052 C.ar    1  UNL11       0.0192
     18 C           0.1182    2.1564    1.1445 C.ar    1  UNL11      -0.0555
     19 C           1.3829    2.3508    1.6353 C.ar    1  UNL11      -0.0253
     20 C           2.4481    1.8595    0.9128 C.ar    1  UNL11       0.1403
     21 F           3.7403    2.0620    1.3421 F       1  UNL11      -0.2045
     22 N           4.5947    0.2482   -0.5070 N.am    1  UNL11      -0.1060
     23 C           5.0854    0.7719    0.6503 C.2     1  UNL11       0.1734
     24 C           6.2833    0.1981    0.9743 C.2     1  UNL11       0.0074
     25 C           6.5520   -0.7107   -0.0073 C.2     1  UNL11       0.0074
     26 C           5.4948   -0.6549   -0.9024 C.2     1  UNL11       0.1734
     27 H           0.8173    0.4805   -1.6727 H       1  UNL11       0.0630
     28 H          -1.4683    0.8038   -1.5131 H       1  UNL11       0.0379
     29 H          -2.1008    0.6992    0.1785 H       1  UNL11       0.0379
     30 H          -2.4956    4.9499   -2.9920 H       1  UNL11       0.4829
     31 H          -4.4224    6.0254    1.1561 H       1  UNL11       0.0627
     32 H          -4.5633    4.8498    3.3498 H       1  UNL11       0.0618
     33 H          -3.5459    2.6206    3.6502 H       1  UNL11       0.0618
     34 H          -2.3909    1.6140    1.7044 H       1  UNL11       0.0624
     35 H          -0.7169    2.5376    1.7047 H       1  UNL11       0.0621
     36 H           1.5736    2.8675    2.5536 H       1  UNL11       0.0646
     37 H           4.6047    1.5398    1.2469 H       1  UNL11       0.1375
     38 H           6.9102    0.4076    1.8322 H       1  UNL11       0.0678
     39 H           7.4106   -1.3588   -0.0939 H       1  UNL11       0.0678
     40 H           5.4439   -1.2559   -1.7909 H       1  UNL11       0.1375
@<TRIPOS>BOND
     1     1     2    2
     2     2     3    1
     3     2    22   am
     4     3     4   ar
     5     4     5   ar
     6     4    27    1
     7     5     6    1
     8     5    18   ar
     9     6     7    1
    10     6    28    1
    11     6    29    1
    12     7     8    2
    13     8     9    1
    14     9    10   am
    15     9    30    1
    16    10    11    2
    17    10    12    1
    18    12    13   ar
    19    13    14   ar
    20    13    31    1
    21    14    15   ar
    22    14    32    1
    23    15    16   ar
    24    15    33    1
    25    16    17   ar
    26    16    34    1
    27    17     7    1
    28    17    12   ar
    29    18    19   ar
    30    18    35    1
    31    19    20   ar
    32    19    36    1
    33    20    21    1
    34    20     3   ar
    35    22    23    1
    36    23    24    2
    37    23    37    1
    38    24    25    1
    39    24    38    1
    40    25    26    2
    41    25    39    1
    42    26    22    1
    43    26    40    1
@<TRIPOS>MOLECULE
*****
 40 43 0 0 0
SMALL
GASTEIGER

@<TRIPOS>ATOM
      1 O           3.1206    0.1057   -2.1689 O.2     1  UNL11      -0.2135
      2 C           3.3898    0.6774   -1.0871 C.2     1  UNL11       0.4231
      3 C           2.2905    1.1756   -0.2895 C.ar    1  UNL11       0.1249
      4 C           0.9708    1.0090   -0.7399 C.ar    1  UNL11      -0.0384
      5 C          -0.1132    1.4847   -0.0486 C.ar    1  UNL11      -0.0403
      6 C          -1.5104    1.3321   -0.5163 C.3     1  UNL11       0.0211
      7 C          -1.5342    1.2943   -2.0000 C.2     1  UNL11       0.1192
      8 N          -1.6673    2.4094   -2.7359 N.2     1  UNL11      -0.0073
      9 N          -1.6896    2.3973   -4.0612 N.am    1  UNL11      -0.0356
     10 C          -1.5717    1.2043   -4.6694 C.2     1  UNL11       0.4383
     11 O          -1.5939    1.1997   -5.9313 O.2     1  UNL11      -0.2116
     12 C          -1.4325    0.0247   -3.9871 C.ar    1  UNL11       0.1004
     13 C          -1.3117   -1.2083   -4.6163 C.ar    1  UNL11      -0.0441
     14 C          -1.1752   -2.3610   -3.8762 C.ar    1  UNL11      -0.0608
     15 C          -1.1510   -2.3601   -2.4982 C.ar    1  UNL11      -0.0611
     16 C          -1.2728   -1.1212   -1.8835 C.ar    1  UNL11      -0.0518
     17 C          -1.4101    0.0423   -2.6135 C.ar    1  UNL11       0.0192
     18 C           0.1182    2.1564    1.1445 C.ar    1  UNL11      -0.0555
     19 C           1.3829    2.3508    1.6353 C.ar    1  UNL11      -0.0253
     20 C           2.4481    1.8595    0.9128 C.ar    1  UNL11       0.1403
     21 F           3.7403    2.0620    1.3421 F       1  UNL11      -0.2045
     22 N           4.7268    0.8175   -0.6806 N.am    1  UNL11      -0.1060
     23 C           5.7752    0.3545   -1.4159 C.2     1  UNL11       0.1734
     24 C           6.9604    0.5944   -0.7781 C.2     1  UNL11       0.0074
     25 C           6.6469    1.2252    0.3905 C.2     1  UNL11       0.0074
     26 C           5.2662    1.3468    0.4200 C.2     1  UNL11       0.1734
     27 H           0.8173    0.4805   -1.6727 H       1  UNL11       0.0630
     28 H          -1.8875    0.3477   -0.1122 H       1  UNL11       0.0379
     29 H          -2.1604    2.1360   -0.1124 H       1  UNL11       0.0379
     30 H          -1.7968    3.3124   -4.5393 H       1  UNL11       0.4829
     31 H          -1.3290   -1.2191   -5.6895 H       1  UNL11       0.0627
     32 H          -1.0819   -3.3181   -4.3677 H       1  UNL11       0.0618
     33 H          -1.0446   -3.2539   -1.9001 H       1  UNL11       0.0618
     34 H          -1.2628   -1.0431   -0.8056 H       1  UNL11       0.0624
     35 H          -0.7169    2.5376    1.7047 H       1  UNL11       0.0621
     36 H           1.5736    2.8675    2.5536 H       1  UNL11       0.0646
     37 H           5.6989   -0.1395   -2.3787 H       1  UNL11       0.1375
     38 H           7.9588    0.3428   -1.1138 H       1  UNL11       0.0678
     39 H           7.3214    1.5726    1.1581 H       1  UNL11       0.0678
     40 H           4.7325    1.7946    1.2370 H       1  UNL11       0.1375
@<TRIPOS>BOND
     1     1     2    2
     2     2     3    1
     3     2    22   am
     4     3     4   ar
     5     4     5   ar
     6     4    27    1
     7     5     6    1
     8     5    18   ar
     9     6     7    1
    10     6    28    1
    11     6    29    1
    12     7     8    2
    13     8     9    1
    14     9    10   am
    15     9    30    1
    16    10    11    2
    17    10    12    1
    18    12    13   ar
    19    13    14   ar
    20    13    31    1
    21    14    15   ar
    22    14    32    1
    23    15    16   ar
    24    15    33    1
    25    16    17   ar
    26    16    34    1
    27    17     7    1
    28    17    12   ar
    29    18    19   ar
    30    18    35    1
    31    19    20   ar
    32    19    36    1
    33    20    21    1
    34    20     3   ar
    35    22    23    1
    36    23    24    2
    37    23    37    1
    38    24    25    1
    39    24    38    1
    40    25    26    2
    41    25    39    1
    42    26    22    1
    43    26    40    1
@<TRIPOS>MOLECULE
*****
 40 43 0 0 0
SMALL
GASTEIGER

@<TRIPOS>ATOM
      1 O           4.4846    1.2834   -1.0246 O.2     1  UNL11      -0.2135
      2 C           3.3898    0.6774   -1.0871 C.2     1  UNL11       0.4231
      3 C           2.2905    1.1756   -0.2895 C.ar    1  UNL11       0.1249
      4 C           0.9708    1.0090   -0.7399 C.ar    1  UNL11      -0.0384
      5 C          -0.1132    1.4847   -0.0486 C.ar    1  UNL11      -0.0403
      6 C          -1.5104    1.3321   -0.5163 C.3     1  UNL11       0.0211
      7 C          -2.2881    0.5663    0.4898 C.2     1  UNL11       0.1192
      8 N          -2.8807   -0.6005    0.1901 N.2     1  UNL11      -0.0073
      9 N          -3.5782   -1.3001    1.0739 N.am    1  UNL11      -0.0356
     10 C          -3.6808   -0.7972    2.3163 C.2     1  UNL11       0.4383
     11 O          -4.3464   -1.4680    3.1530 O.2     1  UNL11      -0.2116
     12 C          -3.1046    0.3858    2.6969 C.ar    1  UNL11       0.1004
     13 C          -3.2118    0.9055    3.9811 C.ar    1  UNL11      -0.0441
     14 C          -2.6107    2.1011    4.3043 C.ar    1  UNL11      -0.0608
     15 C          -1.8835    2.8367    3.3935 C.ar    1  UNL11      -0.0611
     16 C          -1.7851    2.3051    2.1147 C.ar    1  UNL11      -0.0518
     17 C          -2.3827    1.1073    1.7773 C.ar    1  UNL11       0.0192
     18 C           0.1182    2.1564    1.1445 C.ar    1  UNL11      -0.0555
     19 C           1.3829    2.3508    1.6353 C.ar    1  UNL11      -0.0253
     20 C           2.4481    1.8595    0.9128 C.ar    1  UNL11       0.1403
     21 F           3.7403    2.0620    1.3421 F       1  UNL11      -0.2045
     22 N           3.2570   -0.4491   -1.9152 N.am    1  UNL11      -0.1060
     23 C           2.0915   -1.1427   -2.0380 C.2     1  UNL11       0.1734
     24 C           2.2460   -2.2081   -2.8807 C.2     1  UNL11       0.0074
     25 C           3.5448   -2.1827   -3.2979 C.2     1  UNL11       0.0074
     26 C           4.1388   -1.0897   -2.6860 C.2     1  UNL11       0.1734
     27 H           0.8173    0.4805   -1.6727 H       1  UNL11       0.0630
     28 H          -1.9420    2.3711   -0.6093 H       1  UNL11       0.0379
     29 H          -1.5499    0.8574   -1.5187 H       1  UNL11       0.0379
     30 H          -3.9983   -2.1905    0.7448 H       1  UNL11       0.4829
     31 H          -3.7758    0.3395    4.6977 H       1  UNL11       0.0627
     32 H          -2.6958    2.5032    5.3030 H       1  UNL11       0.0618
     33 H          -1.4045    3.7767    3.6281 H       1  UNL11       0.0618
     34 H          -1.2309    2.8270    1.3475 H       1  UNL11       0.0624
     35 H          -0.7169    2.5376    1.7047 H       1  UNL11       0.0621
     36 H           1.5736    2.8675    2.5536 H       1  UNL11       0.0646
     37 H           1.1582   -0.8973   -1.5426 H       1  UNL11       0.1375
     38 H           1.5014   -2.9384   -3.1723 H       1  UNL11       0.0678
     39 H           4.0382   -2.8662   -3.9718 H       1  UNL11       0.0678
     40 H           5.1721   -0.8300   -2.8203 H       1  UNL11       0.1375
@<TRIPOS>BOND
     1     1     2    2
     2     2     3    1
     3     2    22   am
     4     3     4   ar
     5     4     5   ar
     6     4    27    1
     7     5     6    1
     8     5    18   ar
     9     6     7    1
    10     6    28    1
    11     6    29    1
    12     7     8    2
    13     8     9    1
    14     9    10   am
    15     9    30    1
    16    10    11    2
    17    10    12    1
    18    12    13   ar
    19    13    14   ar
    20    13    31    1
    21    14    15   ar
    22    14    32    1
    23    15    16   ar
    24    15    33    1
    25    16    17   ar
    26    16    34    1
    27    17     7    1
    28    17    12   ar
    29    18    19   ar
    30    18    35    1
    31    19    20   ar
    32    19    36    1
    33    20    21    1
    34    20     3   ar
    35    22    23    1
    36    23    24    2
    37    23    37    1
    38    24    25    1
    39    24    38    1
    40    25    26    2
    41    25    39    1
    42    26    22    1
    43    26    40    1
@<TRIPOS>MOLECULE
*****
 40 43 0 0 0
SMALL
GASTEIGER

@<TRIPOS>ATOM
      1 O           4.4846    1.2834   -1.0246 O.2     1  UNL11      -0.2135
      2 C           3.3898    0.6774   -1.0871 C.2     1  UNL11       0.4231
      3 C           2.2905    1.1756   -0.2895 C.ar    1  UNL11       0.1249
      4 C           0.9708    1.0090   -0.7399 C.ar    1  UNL11      -0.0384
      5 C          -0.1132    1.4847   -0.0486 C.ar    1  UNL11      -0.0403
      6 C          -1.5104    1.3321   -0.5163 C.3     1  UNL11       0.0211
      7 C          -2.1208    2.6730   -0.6975 C.2     1  UNL11       0.1192
      8 N          -3.2116    3.0541   -0.0138 N.2     1  UNL11      -0.0073
      9 N          -3.7710    4.2469   -0.1601 N.am    1  UNL11      -0.0356
     10 C          -3.2016    5.0920   -1.0367 C.2     1  UNL11       0.4383
     11 O          -3.7392    6.2260   -1.1714 O.2     1  UNL11      -0.2116
     12 C          -2.0888    4.7753   -1.7700 C.ar    1  UNL11       0.1004
     13 C          -1.5012    5.6490   -2.6767 C.ar    1  UNL11      -0.0441
     14 C          -0.3829    5.2733   -3.3861 C.ar    1  UNL11      -0.0608
     15 C           0.2068    4.0359   -3.2421 C.ar    1  UNL11      -0.0611
     16 C          -0.3912    3.1737   -2.3329 C.ar    1  UNL11      -0.0518
     17 C          -1.5126    3.5377   -1.6150 C.ar    1  UNL11       0.0192
     18 C           0.1182    2.1564    1.1445 C.ar    1  UNL11      -0.0555
     19 C           1.3829    2.3508    1.6353 C.ar    1  UNL11      -0.0253
     20 C           2.4481    1.8595    0.9128 C.ar    1  UNL11       0.1403
     21 F           3.7403    2.0620    1.3421 F       1  UNL11      -0.2045
     22 N           3.2570   -0.4491   -1.9152 N.am    1  UNL11      -0.1060
     23 C           2.0915   -1.1427   -2.0380 C.2     1  UNL11       0.1734
     24 C           2.2460   -2.2081   -2.8807 C.2     1  UNL11       0.0074
     25 C           3.5448   -2.1827   -3.2979 C.2     1  UNL11       0.0074
     26 C           4.1388   -1.0897   -2.6860 C.2     1  UNL11       0.1734
     27 H           0.8173    0.4805   -1.6727 H       1  UNL11       0.0630
     28 H          -1.4683    0.8038   -1.5131 H       1  UNL11       0.0379
     29 H          -2.1008    0.6992    0.1785 H       1  UNL11       0.0379
     30 H          -4.6124    4.4466    0.4140 H       1  UNL11       0.4829
     31 H          -1.9530    6.6154   -2.7954 H       1  UNL11       0.0627
     32 H           0.0717    5.9541   -4.0906 H       1  UNL11       0.0618
     33 H           1.0844    3.7229   -3.7896 H       1  UNL11       0.0618
     34 H           0.0158    2.1862   -2.1679 H       1  UNL11       0.0624
     35 H          -0.7169    2.5376    1.7047 H       1  UNL11       0.0621
     36 H           1.5736    2.8675    2.5536 H       1  UNL11       0.0646
     37 H           1.1582   -0.8973   -1.5426 H       1  UNL11       0.1375
     38 H           1.5014   -2.9384   -3.1723 H       1  UNL11       0.0678
     39 H           4.0382   -2.8662   -3.9718 H       1  UNL11       0.0678
     40 H           5.1721   -0.8300   -2.8203 H       1  UNL11       0.1375
@<TRIPOS>BOND
     1     1     2    2
     2     2     3    1
     3     2    22   am
     4     3     4   ar
     5     4     5   ar
     6     4    27    1
     7     5     6    1
     8     5    18   ar
     9     6     7    1
    10     6    28    1
    11     6    29    1
    12     7     8    2
    13     8     9    1
    14     9    10   am
    15     9    30    1
    16    10    11    2
    17    10    12    1
    18    12    13   ar
    19    13    14   ar
    20    13    31    1
    21    14    15   ar
    22    14    32    1
    23    15    16   ar
    24    15    33    1
    25    16    17   ar
    26    16    34    1
    27    17     7    1
    28    17    12   ar
    29    18    19   ar
    30    18    35    1
    31    19    20   ar
    32    19    36    1
    33    20    21    1
    34    20     3   ar
    35    22    23    1
    36    23    24    2
    37    23    37    1
    38    24    25    1
    39    24    38    1
    40    25    26    2
    41    25    39    1
    42    26    22    1
    43    26    40    1
@<TRIPOS>MOLECULE
*****
 40 43 0 0 0
SMALL
GASTEIGER

@<TRIPOS>ATOM
      1 O           3.2428    0.6341   -2.3306 O.2     1  UNL11      -0.2135
      2 C           3.3898    0.6774   -1.0871 C.2     1  UNL11       0.4231
      3 C           2.2905    1.1756   -0.2895 C.ar    1  UNL11       0.1249
      4 C           0.9708    1.0090   -0.7399 C.ar    1  UNL11      -0.0384
      5 C          -0.1132    1.4847   -0.0486 C.ar    1  UNL11      -0.0403
      6 C          -1.5104    1.3321   -0.5163 C.3     1  UNL11       0.0211
      7 C          -1.6619    1.9812   -1.8426 C.2     1  UNL11       0.1192
      8 N          -0.6349    2.5921   -2.4548 N.2     1  UNL11      -0.0073
      9 N          -0.7490    3.1763   -3.6392 N.am    1  UNL11      -0.0356
     10 C          -1.9555    3.1407   -4.2310 C.2     1  UNL11       0.4383
     11 O          -2.0575    3.6989   -5.3584 O.2     1  UNL11      -0.2116
     12 C          -3.0493    2.5370   -3.6694 C.ar    1  UNL11       0.1004
     13 C          -4.2964    2.5015   -4.2812 C.ar    1  UNL11      -0.0441
     14 C          -5.3597    1.8797   -3.6665 C.ar    1  UNL11      -0.0608
     15 C          -5.2524    1.2695   -2.4353 C.ar    1  UNL11      -0.0611
     16 C          -4.0007    1.3131   -1.8362 C.ar    1  UNL11      -0.0518
     17 C          -2.9261    1.9330   -2.4416 C.ar    1  UNL11       0.0192
     18 C           0.1182    2.1564    1.1445 C.ar    1  UNL11      -0.0555
     19 C           1.3829    2.3508    1.6353 C.ar    1  UNL11      -0.0253
     20 C           2.4481    1.8595    0.9128 C.ar    1  UNL11       0.1403
     21 F           3.7403    2.0620    1.3421 F       1  UNL11      -0.2045
     22 N           4.5947    0.2482   -0.5070 N.am    1  UNL11      -0.1060
     23 C           5.6403   -0.2251   -1.2399 C.2     1  UNL11       0.1734
     24 C           6.6735   -0.6006   -0.4271 C.2     1  UNL11       0.0074
     25 C           6.2646   -0.3566    0.8516 C.2     1  UNL11       0.0074
     26 C           4.9827    0.1645    0.7676 C.2     1  UNL11       0.1734
     27 H           0.8173    0.4805   -1.6727 H       1  UNL11       0.0630
     28 H          -1.7044    0.2247   -0.6188 H       1  UNL11       0.0379
     29 H          -2.2300    1.7353    0.2263 H       1  UNL11       0.0379
     30 H           0.1035    3.6220   -4.0291 H       1  UNL11       0.4829
     31 H          -4.3897    2.9736   -5.2406 H       1  UNL11       0.0627
     32 H          -6.3281    1.8538   -4.1438 H       1  UNL11       0.0618
     33 H          -6.0751    0.7765   -1.9370 H       1  UNL11       0.0618
     34 H          -3.8417    0.8561   -0.8698 H       1  UNL11       0.0624
     35 H          -0.7169    2.5376    1.7047 H       1  UNL11       0.0621
     36 H           1.5736    2.8675    2.5536 H       1  UNL11       0.0646
     37 H           5.6672   -0.3007   -2.3217 H       1  UNL11       0.1375
     38 H           7.6323   -1.0118   -0.7177 H       1  UNL11       0.0678
     39 H           6.8118   -0.5257    1.7663 H       1  UNL11       0.0678
     40 H           4.4012    0.4377    1.6280 H       1  UNL11       0.1375
@<TRIPOS>BOND
     1     1     2    2
     2     2     3    1
     3     2    22   am
     4     3     4   ar
     5     4     5   ar
     6     4    27    1
     7     5     6    1
     8     5    18   ar
     9     6     7    1
    10     6    28    1
    11     6    29    1
    12     7     8    2
    13     8     9    1
    14     9    10   am
    15     9    30    1
    16    10    11    2
    17    10    12    1
    18    12    13   ar
    19    13    14   ar
    20    13    31    1
    21    14    15   ar
    22    14    32    1
    23    15    16   ar
    24    15    33    1
    25    16    17   ar
    26    16    34    1
    27    17     7    1
    28    17    12   ar
    29    18    19   ar
    30    18    35    1
    31    19    20   ar
    32    19    36    1
    33    20    21    1
    34    20     3   ar
    35    22    23    1
    36    23    24    2
    37    23    37    1
    38    24    25    1
    39    24    38    1
    40    25    26    2
    41    25    39    1
    42    26    22    1
    43    26    40    1
