@<TRIPOS>MOLECULE
*****
 35 36 0 0 0
SMALL
GASTEIGER

@<TRIPOS>ATOM
      1 C           3.6416    2.3286   -1.7150 C.3     1  UNL11       0.0125
      2 C           4.4857    1.1307   -1.3544 C.2     1  UNL11       0.2141
      3 O           5.6209    1.0877   -1.8569 O.2     1  UNL11      -0.2758
      4 N           4.0182    0.1269   -0.5042 N.am    1  UNL11      -0.2857
      5 C           2.7433    0.1012    0.0886 C.ar    1  UNL11       0.0336
      6 C           2.4674    0.0885    1.4330 C.ar    1  UNL11      -0.0370
      7 C           1.1769    0.0554    1.9503 C.ar    1  UNL11      -0.0176
      8 C           0.1030    0.0339    1.0983 C.ar    1  UNL11       0.1286
      9 O          -1.2096    0.0003    1.6054 O.3     1  UNL11      -0.4559
     10 C          -2.2557    0.5846    0.9015 C.ar    1  UNL11       0.1323
     11 C          -3.5472    0.1092    0.9689 C.ar    1  UNL11       0.0015
     12 C          -4.6069    0.6725    0.2782 C.ar    1  UNL11       0.0302
     13 N          -5.9255    0.1464    0.3788 N.pl3   1  UNL11      -0.3578
     14 C          -4.3220    1.7669   -0.5107 C.ar    1  UNL11      -0.0107
     15 C          -3.0472    2.2807   -0.6120 C.ar    1  UNL11       0.1268
     16 N          -2.7867    3.4076   -1.4322 N.4     1  UNL11       0.0061
     17 O          -3.4672    3.6118   -2.4316 O.2     1  UNL11      -0.1300
     18 O          -1.7722    4.2757   -1.1124 O.2     1  UNL11      -0.3961
     19 C          -2.0060    1.6812    0.1025 C.ar    1  UNL11       0.0108
     20 C           0.3308    0.0457   -0.2556 C.ar    1  UNL11      -0.0176
     21 C           1.6095    0.0783   -0.7481 C.ar    1  UNL11      -0.0370
     22 H           2.9423    2.5574   -0.8832 H       1  UNL11       0.0323
     23 H           4.3149    3.2051   -1.8163 H       1  UNL11       0.0323
     24 H           3.1416    2.0900   -2.6558 H       1  UNL11       0.0323
     25 H           4.6638   -0.6851   -0.2811 H       1  UNL11       0.1548
     26 H           3.2539    0.1085    2.1641 H       1  UNL11       0.0637
     27 H           0.9940    0.0460    3.0162 H       1  UNL11       0.0655
     28 H          -3.7275   -0.7570    1.6040 H       1  UNL11       0.0673
     29 H          -6.2065   -0.4436    1.1922 H       1  UNL11       0.1423
     30 H          -6.6236    0.3380   -0.3471 H       1  UNL11       0.1423
     31 H          -5.1109    2.2457   -1.0715 H       1  UNL11       0.0659
     32 H          -1.0004    2.0572    0.0456 H       1  UNL11       0.0677
     33 H          -0.5433    0.0280   -0.9042 H       1  UNL11       0.0655
     34 H           1.7268    0.0861   -1.8136 H       1  UNL11       0.0637
     35 H          -1.2491    4.1244   -0.3498 H       1  UNL11       0.3292
@<TRIPOS>BOND
     1     1     2    1
     2     1    22    1
     3     1    23    1
     4     1    24    1
     5     2     3    2
     6     2     4   am
     7     4     5    1
     8     4    25    1
     9     5     6   ar
    10     6     7   ar
    11     6    26    1
    12     7     8   ar
    13     7    27    1
    14     8     9    1
    15     8    20   ar
    16     9    10    1
    17    10    11   ar
    18    11    12   ar
    19    11    28    1
    20    12    13    1
    21    12    14   ar
    22    13    29    1
    23    13    30    1
    24    14    15   ar
    25    14    31    1
    26    15    16    1
    27    15    19   ar
    28    16    17    2
    29    16    18    1
    30    19    10   ar
    31    19    32    1
    32    20    21   ar
    33    20    33    1
    34    21     5   ar
    35    21    34    1
    36    18    35    1
@<TRIPOS>MOLECULE
*****
 35 36 0 0 0
SMALL
GASTEIGER

@<TRIPOS>ATOM
      1 C           6.5258    0.5307   -0.5675 C.3     1  UNL11       0.0125
      2 C           5.1910    0.5304    0.1366 C.2     1  UNL11       0.2141
      3 O           5.1942    0.9097    1.3195 O.2     1  UNL11      -0.2758
      4 N           4.0182    0.1269   -0.5042 N.am    1  UNL11      -0.2857
      5 C           2.7433    0.1012    0.0886 C.ar    1  UNL11       0.0336
      6 C           2.4674    0.0885    1.4330 C.ar    1  UNL11      -0.0370
      7 C           1.1769    0.0554    1.9503 C.ar    1  UNL11      -0.0176
      8 C           0.1030    0.0339    1.0983 C.ar    1  UNL11       0.1286
      9 O          -1.2096    0.0003    1.6054 O.3     1  UNL11      -0.4559
     10 C          -1.4817   -0.6051    2.8264 C.ar    1  UNL11       0.1323
     11 C          -2.6908   -1.2071    3.0986 C.ar    1  UNL11       0.0015
     12 C          -2.9872   -1.8168    4.3061 C.ar    1  UNL11       0.0302
     13 N          -4.2513   -2.4265    4.5420 N.pl3   1  UNL11      -0.3578
     14 C          -1.9985   -1.8041    5.2670 C.ar    1  UNL11      -0.0107
     15 C          -0.7725   -1.2153    5.0442 C.ar    1  UNL11       0.1268
     16 N           0.2236   -1.2190    6.0533 N.4     1  UNL11       0.0061
     17 O          -0.0002   -1.7473    7.1370 O.2     1  UNL11      -0.1300
     18 O           1.4430   -0.6317    5.8230 O.2     1  UNL11      -0.3961
     19 C          -0.5148   -0.6106    3.8105 C.ar    1  UNL11       0.0108
     20 C           0.3308    0.0457   -0.2556 C.ar    1  UNL11      -0.0176
     21 C           1.6095    0.0783   -0.7481 C.ar    1  UNL11      -0.0370
     22 H           6.3753    0.7011   -1.6545 H       1  UNL11       0.0323
     23 H           7.1141    1.3919   -0.1879 H       1  UNL11       0.0323
     24 H           7.0051   -0.4222   -0.3348 H       1  UNL11       0.0323
     25 H           4.0793   -0.1854   -1.5165 H       1  UNL11       0.1548
     26 H           3.2539    0.1085    2.1641 H       1  UNL11       0.0637
     27 H           0.9940    0.0460    3.0162 H       1  UNL11       0.0655
     28 H          -3.4431   -1.1941    2.3113 H       1  UNL11       0.0673
     29 H          -4.8589   -2.7252    3.7481 H       1  UNL11       0.1423
     30 H          -4.5880   -2.5833    5.4976 H       1  UNL11       0.1423
     31 H          -2.1758   -2.2652    6.2273 H       1  UNL11       0.0659
     32 H           0.4308   -0.1426    3.6045 H       1  UNL11       0.0677
     33 H          -0.5433    0.0280   -0.9042 H       1  UNL11       0.0655
     34 H           1.7268    0.0861   -1.8136 H       1  UNL11       0.0637
     35 H           1.6193   -0.2265    4.9967 H       1  UNL11       0.3292
@<TRIPOS>BOND
     1     1     2    1
     2     1    22    1
     3     1    23    1
     4     1    24    1
     5     2     3    2
     6     2     4   am
     7     4     5    1
     8     4    25    1
     9     5     6   ar
    10     6     7   ar
    11     6    26    1
    12     7     8   ar
    13     7    27    1
    14     8     9    1
    15     8    20   ar
    16     9    10    1
    17    10    11   ar
    18    11    12   ar
    19    11    28    1
    20    12    13    1
    21    12    14   ar
    22    13    29    1
    23    13    30    1
    24    14    15   ar
    25    14    31    1
    26    15    16    1
    27    15    19   ar
    28    16    17    2
    29    16    18    1
    30    19    10   ar
    31    19    32    1
    32    20    21   ar
    33    20    33    1
    34    21     5   ar
    35    21    34    1
    36    18    35    1
@<TRIPOS>MOLECULE
*****
 35 36 0 0 0
SMALL
GASTEIGER

@<TRIPOS>ATOM
      1 C           3.6416    2.3286   -1.7150 C.3     1  UNL11       0.0125
      2 C           4.4857    1.1307   -1.3544 C.2     1  UNL11       0.2141
      3 O           5.6209    1.0877   -1.8569 O.2     1  UNL11      -0.2758
      4 N           4.0182    0.1269   -0.5042 N.am    1  UNL11      -0.2857
      5 C           2.7433    0.1012    0.0886 C.ar    1  UNL11       0.0336
      6 C           2.4674    0.0885    1.4330 C.ar    1  UNL11      -0.0370
      7 C           1.1769    0.0554    1.9503 C.ar    1  UNL11      -0.0176
      8 C           0.1030    0.0339    1.0983 C.ar    1  UNL11       0.1286
      9 O          -1.2096    0.0003    1.6054 O.3     1  UNL11      -0.4559
     10 C          -1.4817   -0.6051    2.8264 C.ar    1  UNL11       0.1323
     11 C          -2.5050   -0.1839    3.6474 C.ar    1  UNL11       0.0015
     12 C          -2.7969   -0.7692    4.8679 C.ar    1  UNL11       0.0302
     13 N          -3.8650   -0.2995    5.6827 N.pl3   1  UNL11      -0.3578
     14 C          -2.0028   -1.8282    5.2541 C.ar    1  UNL11      -0.0107
     15 C          -0.9672   -2.2874    4.4692 C.ar    1  UNL11       0.1268
     16 N          -0.1686   -3.3789    4.8949 N.4     1  UNL11       0.0061
     17 O          -0.6474   -4.2475    5.6160 O.2     1  UNL11      -0.1300
     18 O           1.1440   -3.4696    4.5026 O.2     1  UNL11      -0.3961
     19 C          -0.7067   -1.6674    3.2438 C.ar    1  UNL11       0.0108
     20 C           0.3308    0.0457   -0.2556 C.ar    1  UNL11      -0.0176
     21 C           1.6095    0.0783   -0.7481 C.ar    1  UNL11      -0.0370
     22 H           2.9423    2.5574   -0.8832 H       1  UNL11       0.0323
     23 H           4.3149    3.2051   -1.8163 H       1  UNL11       0.0323
     24 H           3.1416    2.0900   -2.6558 H       1  UNL11       0.0323
     25 H           4.6638   -0.6851   -0.2811 H       1  UNL11       0.1548
     26 H           3.2539    0.1085    2.1641 H       1  UNL11       0.0637
     27 H           0.9940    0.0460    3.0162 H       1  UNL11       0.0655
     28 H          -3.1072    0.6558    3.3033 H       1  UNL11       0.0673
     29 H          -4.6479    0.2553    5.2728 H       1  UNL11       0.1423
     30 H          -3.8842   -0.4979    6.6883 H       1  UNL11       0.1423
     31 H          -2.1860   -2.3220    6.1969 H       1  UNL11       0.0659
     32 H           0.0933   -2.0010    2.6079 H       1  UNL11       0.0677
     33 H          -0.5433    0.0280   -0.9042 H       1  UNL11       0.0655
     34 H           1.7268    0.0861   -1.8136 H       1  UNL11       0.0637
     35 H           1.5150   -2.8087    3.9517 H       1  UNL11       0.3292
@<TRIPOS>BOND
     1     1     2    1
     2     1    22    1
     3     1    23    1
     4     1    24    1
     5     2     3    2
     6     2     4   am
     7     4     5    1
     8     4    25    1
     9     5     6   ar
    10     6     7   ar
    11     6    26    1
    12     7     8   ar
    13     7    27    1
    14     8     9    1
    15     8    20   ar
    16     9    10    1
    17    10    11   ar
    18    11    12   ar
    19    11    28    1
    20    12    13    1
    21    12    14   ar
    22    13    29    1
    23    13    30    1
    24    14    15   ar
    25    14    31    1
    26    15    16    1
    27    15    19   ar
    28    16    17    2
    29    16    18    1
    30    19    10   ar
    31    19    32    1
    32    20    21   ar
    33    20    33    1
    34    21     5   ar
    35    21    34    1
    36    18    35    1
@<TRIPOS>MOLECULE
*****
 35 36 0 0 0
SMALL
GASTEIGER

@<TRIPOS>ATOM
      1 C           6.1261   -0.8940   -1.4890 C.3     1  UNL11       0.0125
      2 C           4.7610   -1.0020   -0.8548 C.2     1  UNL11       0.2141
      3 O           4.3347   -2.1527   -0.6618 O.2     1  UNL11      -0.2758
      4 N           4.0182    0.1269   -0.5042 N.am    1  UNL11      -0.2857
      5 C           2.7433    0.1012    0.0886 C.ar    1  UNL11       0.0336
      6 C           2.4674    0.0885    1.4330 C.ar    1  UNL11      -0.0370
      7 C           1.1769    0.0554    1.9503 C.ar    1  UNL11      -0.0176
      8 C           0.1030    0.0339    1.0983 C.ar    1  UNL11       0.1286
      9 O          -1.2096    0.0003    1.6054 O.3     1  UNL11      -0.4559
     10 C          -1.5092    0.5776    2.8335 C.ar    1  UNL11       0.1323
     11 C          -2.5116    0.0994    3.6491 C.ar    1  UNL11       0.0015
     12 C          -2.8302    0.6559    4.8763 C.ar    1  UNL11       0.0302
     13 N          -3.8751    0.1272    5.6852 N.pl3   1  UNL11      -0.3578
     14 C          -2.0861    1.7459    5.2756 C.ar    1  UNL11      -0.0107
     15 C          -1.0731    2.2621    4.4966 C.ar    1  UNL11       0.1268
     16 N          -0.3260    3.3845    4.9357 N.4     1  UNL11       0.0061
     17 O           0.5658    3.8441    4.2307 O.2     1  UNL11      -0.1300
     18 O          -0.5968    3.9625    6.1512 O.2     1  UNL11      -0.3961
     19 C          -0.7844    1.6698    3.2638 C.ar    1  UNL11       0.0108
     20 C           0.3308    0.0457   -0.2556 C.ar    1  UNL11      -0.0176
     21 C           1.6095    0.0783   -0.7481 C.ar    1  UNL11      -0.0370
     22 H           6.6224    0.0403   -1.1516 H       1  UNL11       0.0323
     23 H           6.7451   -1.7367   -1.1169 H       1  UNL11       0.0323
     24 H           5.9766   -0.9463   -2.5693 H       1  UNL11       0.0323
     25 H           4.4367    1.0836   -0.6929 H       1  UNL11       0.1548
     26 H           3.2539    0.1085    2.1641 H       1  UNL11       0.0637
     27 H           0.9940    0.0460    3.0162 H       1  UNL11       0.0655
     28 H          -3.0742   -0.7631    3.2948 H       1  UNL11       0.0673
     29 H          -4.2078   -0.8534    5.5575 H       1  UNL11       0.1423
     30 H          -4.3202    0.7014    6.4086 H       1  UNL11       0.1423
     31 H          -2.2919    2.2193    6.2241 H       1  UNL11       0.0659
     32 H          -0.0009    2.0478    2.6323 H       1  UNL11       0.0677
     33 H          -0.5433    0.0280   -0.9042 H       1  UNL11       0.0655
     34 H           1.7268    0.0861   -1.8136 H       1  UNL11       0.0637
     35 H          -1.2772    3.6154    6.6939 H       1  UNL11       0.3292
@<TRIPOS>BOND
     1     1     2    1
     2     1    22    1
     3     1    23    1
     4     1    24    1
     5     2     3    2
     6     2     4   am
     7     4     5    1
     8     4    25    1
     9     5     6   ar
    10     6     7   ar
    11     6    26    1
    12     7     8   ar
    13     7    27    1
    14     8     9    1
    15     8    20   ar
    16     9    10    1
    17    10    11   ar
    18    11    12   ar
    19    11    28    1
    20    12    13    1
    21    12    14   ar
    22    13    29    1
    23    13    30    1
    24    14    15   ar
    25    14    31    1
    26    15    16    1
    27    15    19   ar
    28    16    17    2
    29    16    18    1
    30    19    10   ar
    31    19    32    1
    32    20    21   ar
    33    20    33    1
    34    21     5   ar
    35    21    34    1
    36    18    35    1
@<TRIPOS>MOLECULE
*****
 35 36 0 0 0
SMALL
GASTEIGER

@<TRIPOS>ATOM
      1 C           4.7209    2.3019    0.6052 C.3     1  UNL11       0.0125
      2 C           4.9731    1.1259   -0.3063 C.2     1  UNL11       0.2141
      3 O           6.0790    1.0964   -0.8713 O.2     1  UNL11      -0.2758
      4 N           4.0182    0.1269   -0.5042 N.am    1  UNL11      -0.2857
      5 C           2.7433    0.1012    0.0886 C.ar    1  UNL11       0.0336
      6 C           2.4674    0.0885    1.4330 C.ar    1  UNL11      -0.0370
      7 C           1.1769    0.0554    1.9503 C.ar    1  UNL11      -0.0176
      8 C           0.1030    0.0339    1.0983 C.ar    1  UNL11       0.1286
      9 O          -1.2096    0.0003    1.6054 O.3     1  UNL11      -0.4559
     10 C          -1.4817   -0.6051    2.8264 C.ar    1  UNL11       0.1323
     11 C          -2.6908   -1.2071    3.0986 C.ar    1  UNL11       0.0015
     12 C          -2.9872   -1.8168    4.3061 C.ar    1  UNL11       0.0302
     13 N          -4.2513   -2.4265    4.5420 N.pl3   1  UNL11      -0.3578
     14 C          -1.9985   -1.8041    5.2670 C.ar    1  UNL11      -0.0107
     15 C          -0.7725   -1.2153    5.0442 C.ar    1  UNL11       0.1268
     16 N           0.2236   -1.2190    6.0533 N.4     1  UNL11       0.0061
     17 O           1.0335   -0.3008    6.1219 O.2     1  UNL11      -0.1300
     18 O           0.2868   -2.2494    6.9584 O.2     1  UNL11      -0.3961
     19 C          -0.5148   -0.6106    3.8105 C.ar    1  UNL11       0.0108
     20 C           0.3308    0.0457   -0.2556 C.ar    1  UNL11      -0.0176
     21 C           1.6095    0.0783   -0.7481 C.ar    1  UNL11      -0.0370
     22 H           4.0222    2.0042    1.4153 H       1  UNL11       0.0323
     23 H           5.6808    2.5696    1.0938 H       1  UNL11       0.0323
     24 H           4.3453    3.1123   -0.0227 H       1  UNL11       0.0323
     25 H           4.2597   -0.6797   -1.1500 H       1  UNL11       0.1548
     26 H           3.2539    0.1085    2.1641 H       1  UNL11       0.0637
     27 H           0.9940    0.0460    3.0162 H       1  UNL11       0.0655
     28 H          -3.4431   -1.1941    2.3113 H       1  UNL11       0.0673
     29 H          -4.8589   -2.7252    3.7481 H       1  UNL11       0.1423
     30 H          -4.5880   -2.5833    5.4976 H       1  UNL11       0.1423
     31 H          -2.1758   -2.2652    6.2273 H       1  UNL11       0.0659
     32 H           0.4308   -0.1426    3.6045 H       1  UNL11       0.0677
     33 H          -0.5433    0.0280   -0.9042 H       1  UNL11       0.0655
     34 H           1.7268    0.0861   -1.8136 H       1  UNL11       0.0637
     35 H          -0.3296   -2.9535    6.9105 H       1  UNL11       0.3292
@<TRIPOS>BOND
     1     1     2    1
     2     1    22    1
     3     1    23    1
     4     1    24    1
     5     2     3    2
     6     2     4   am
     7     4     5    1
     8     4    25    1
     9     5     6   ar
    10     6     7   ar
    11     6    26    1
    12     7     8   ar
    13     7    27    1
    14     8     9    1
    15     8    20   ar
    16     9    10    1
    17    10    11   ar
    18    11    12   ar
    19    11    28    1
    20    12    13    1
    21    12    14   ar
    22    13    29    1
    23    13    30    1
    24    14    15   ar
    25    14    31    1
    26    15    16    1
    27    15    19   ar
    28    16    17    2
    29    16    18    1
    30    19    10   ar
    31    19    32    1
    32    20    21   ar
    33    20    33    1
    34    21     5   ar
    35    21    34    1
    36    18    35    1
@<TRIPOS>MOLECULE
*****
 35 36 0 0 0
SMALL
GASTEIGER

@<TRIPOS>ATOM
      1 C           5.2756    0.1199    1.7035 C.3     1  UNL11       0.0125
      2 C           5.2262    0.1438    0.1954 C.2     1  UNL11       0.2141
      3 O           6.3216    0.1794   -0.3893 O.2     1  UNL11      -0.2758
      4 N           4.0182    0.1269   -0.5042 N.am    1  UNL11      -0.2857
      5 C           2.7433    0.1012    0.0886 C.ar    1  UNL11       0.0336
      6 C           2.4674    0.0885    1.4330 C.ar    1  UNL11      -0.0370
      7 C           1.1769    0.0554    1.9503 C.ar    1  UNL11      -0.0176
      8 C           0.1030    0.0339    1.0983 C.ar    1  UNL11       0.1286
      9 O          -1.2096    0.0003    1.6054 O.3     1  UNL11      -0.4559
     10 C          -2.2276   -0.6236    0.8943 C.ar    1  UNL11       0.1323
     11 C          -3.3021   -1.2223    1.5152 C.ar    1  UNL11       0.0015
     12 C          -4.3289   -1.8503    0.8306 C.ar    1  UNL11       0.0302
     13 N          -5.4197   -2.4557    1.5155 N.pl3   1  UNL11      -0.3578
     14 C          -4.2426   -1.8598   -0.5456 C.ar    1  UNL11      -0.0107
     15 C          -3.1888   -1.2751   -1.2141 C.ar    1  UNL11       0.1268
     16 N          -3.1291   -1.3021   -2.6306 N.4     1  UNL11       0.0061
     17 O          -2.1818   -0.7894   -3.2165 O.2     1  UNL11      -0.1300
     18 O          -4.1305   -1.9019   -3.3533 O.2     1  UNL11      -0.3961
     19 C          -2.1728   -0.6517   -0.4840 C.ar    1  UNL11       0.0108
     20 C           0.3308    0.0457   -0.2556 C.ar    1  UNL11      -0.0176
     21 C           1.6095    0.0783   -0.7481 C.ar    1  UNL11      -0.0370
     22 H           4.3886   -0.4191    2.0983 H       1  UNL11       0.0323
     23 H           6.1674   -0.4662    2.0086 H       1  UNL11       0.0323
     24 H           5.3406    1.1588    2.0332 H       1  UNL11       0.0323
     25 H           4.0504    0.1351   -1.5648 H       1  UNL11       0.1548
     26 H           3.2539    0.1085    2.1641 H       1  UNL11       0.0637
     27 H           0.9940    0.0460    3.0162 H       1  UNL11       0.0655
     28 H          -3.3303   -1.1913    2.6034 H       1  UNL11       0.0673
     29 H          -5.6599   -2.1782    2.4922 H       1  UNL11       0.1423
     30 H          -5.9897   -3.1764    1.0607 H       1  UNL11       0.1423
     31 H          -5.0161   -2.3358   -1.1297 H       1  UNL11       0.0659
     32 H          -1.3372   -0.1863   -0.9746 H       1  UNL11       0.0677
     33 H          -0.5433    0.0280   -0.9042 H       1  UNL11       0.0655
     34 H           1.7268    0.0861   -1.8136 H       1  UNL11       0.0637
     35 H          -4.8567   -2.2953   -2.9107 H       1  UNL11       0.3292
@<TRIPOS>BOND
     1     1     2    1
     2     1    22    1
     3     1    23    1
     4     1    24    1
     5     2     3    2
     6     2     4   am
     7     4     5    1
     8     4    25    1
     9     5     6   ar
    10     6     7   ar
    11     6    26    1
    12     7     8   ar
    13     7    27    1
    14     8     9    1
    15     8    20   ar
    16     9    10    1
    17    10    11   ar
    18    11    12   ar
    19    11    28    1
    20    12    13    1
    21    12    14   ar
    22    13    29    1
    23    13    30    1
    24    14    15   ar
    25    14    31    1
    26    15    16    1
    27    15    19   ar
    28    16    17    2
    29    16    18    1
    30    19    10   ar
    31    19    32    1
    32    20    21   ar
    33    20    33    1
    34    21     5   ar
    35    21    34    1
    36    18    35    1
@<TRIPOS>MOLECULE
*****
 35 36 0 0 0
SMALL
GASTEIGER

@<TRIPOS>ATOM
      1 C           4.7209    2.3019    0.6052 C.3     1  UNL11       0.0125
      2 C           4.9731    1.1259   -0.3063 C.2     1  UNL11       0.2141
      3 O           6.0790    1.0964   -0.8713 O.2     1  UNL11      -0.2758
      4 N           4.0182    0.1269   -0.5042 N.am    1  UNL11      -0.2857
      5 C           2.7433    0.1012    0.0886 C.ar    1  UNL11       0.0336
      6 C           2.4674    0.0885    1.4330 C.ar    1  UNL11      -0.0370
      7 C           1.1769    0.0554    1.9503 C.ar    1  UNL11      -0.0176
      8 C           0.1030    0.0339    1.0983 C.ar    1  UNL11       0.1286
      9 O          -1.2096    0.0003    1.6054 O.3     1  UNL11      -0.4559
     10 C          -1.5092    0.5776    2.8335 C.ar    1  UNL11       0.1323
     11 C          -2.7449    1.1195    3.1126 C.ar    1  UNL11       0.0015
     12 C          -3.0690    1.7003    4.3271 C.ar    1  UNL11       0.0302
     13 N          -4.3601    2.2477    4.5701 N.pl3   1  UNL11      -0.3578
     14 C          -2.0805    1.7220    5.2882 C.ar    1  UNL11      -0.0107
     15 C          -0.8286    1.1934    5.0587 C.ar    1  UNL11       0.1268
     16 N           0.1666    1.2313    6.0680 N.4     1  UNL11       0.0061
     17 O           0.1727    2.1390    6.8924 O.2     1  UNL11      -0.1300
     18 O           1.1279    0.2530    6.1280 O.2     1  UNL11      -0.3961
     19 C          -0.5433    0.6163    3.8179 C.ar    1  UNL11       0.0108
     20 C           0.3308    0.0457   -0.2556 C.ar    1  UNL11      -0.0176
     21 C           1.6095    0.0783   -0.7481 C.ar    1  UNL11      -0.0370
     22 H           4.0222    2.0042    1.4153 H       1  UNL11       0.0323
     23 H           5.6808    2.5696    1.0938 H       1  UNL11       0.0323
     24 H           4.3453    3.1123   -0.0227 H       1  UNL11       0.0323
     25 H           4.2597   -0.6797   -1.1500 H       1  UNL11       0.1548
     26 H           3.2539    0.1085    2.1641 H       1  UNL11       0.0637
     27 H           0.9940    0.0460    3.0162 H       1  UNL11       0.0655
     28 H          -3.4961    1.0810    2.3250 H       1  UNL11       0.0673
     29 H          -5.1830    1.9532    4.0003 H       1  UNL11       0.1423
     30 H          -4.5047    2.9422    5.3102 H       1  UNL11       0.1423
     31 H          -2.2788    2.1628    6.2538 H       1  UNL11       0.0659
     32 H           0.4229    0.1952    3.6065 H       1  UNL11       0.0677
     33 H          -0.5433    0.0280   -0.9042 H       1  UNL11       0.0655
     34 H           1.7268    0.0861   -1.8136 H       1  UNL11       0.0637
     35 H           1.1280   -0.4429    5.5005 H       1  UNL11       0.3292
@<TRIPOS>BOND
     1     1     2    1
     2     1    22    1
     3     1    23    1
     4     1    24    1
     5     2     3    2
     6     2     4   am
     7     4     5    1
     8     4    25    1
     9     5     6   ar
    10     6     7   ar
    11     6    26    1
    12     7     8   ar
    13     7    27    1
    14     8     9    1
    15     8    20   ar
    16     9    10    1
    17    10    11   ar
    18    11    12   ar
    19    11    28    1
    20    12    13    1
    21    12    14   ar
    22    13    29    1
    23    13    30    1
    24    14    15   ar
    25    14    31    1
    26    15    16    1
    27    15    19   ar
    28    16    17    2
    29    16    18    1
    30    19    10   ar
    31    19    32    1
    32    20    21   ar
    33    20    33    1
    34    21     5   ar
    35    21    34    1
    36    18    35    1
@<TRIPOS>MOLECULE
*****
 35 36 0 0 0
SMALL
GASTEIGER

@<TRIPOS>ATOM
      1 C           6.3458   -0.7569   -1.0105 C.3     1  UNL11       0.0125
      2 C           4.9973   -0.8546   -0.3401 C.2     1  UNL11       0.2141
      3 O           4.8070   -1.8582    0.3668 O.2     1  UNL11      -0.2758
      4 N           4.0182    0.1269   -0.5042 N.am    1  UNL11      -0.2857
      5 C           2.7433    0.1012    0.0886 C.ar    1  UNL11       0.0336
      6 C           2.4674    0.0885    1.4330 C.ar    1  UNL11      -0.0370
      7 C           1.1769    0.0554    1.9503 C.ar    1  UNL11      -0.0176
      8 C           0.1030    0.0339    1.0983 C.ar    1  UNL11       0.1286
      9 O          -1.2096    0.0003    1.6054 O.3     1  UNL11      -0.4559
     10 C          -1.4817   -0.6051    2.8264 C.ar    1  UNL11       0.1323
     11 C          -0.5566   -0.6586    3.8462 C.ar    1  UNL11       0.0015
     12 C          -0.8021   -1.2554    5.0713 C.ar    1  UNL11       0.0302
     13 N           0.1852   -1.2863    6.0959 N.pl3   1  UNL11      -0.3578
     14 C          -2.0487   -1.8171    5.2494 C.ar    1  UNL11      -0.0107
     15 C          -3.0087   -1.7900    4.2609 C.ar    1  UNL11       0.1268
     16 N          -4.2815   -2.3770    4.4753 N.4     1  UNL11       0.0061
     17 O          -5.1254   -2.3583    3.5859 O.2     1  UNL11      -0.1300
     18 O          -4.5758   -2.9692    5.6785 O.2     1  UNL11      -0.3961
     19 C          -2.7190   -1.1772    3.0384 C.ar    1  UNL11       0.0108
     20 C           0.3308    0.0457   -0.2556 C.ar    1  UNL11      -0.0176
     21 C           1.6095    0.0783   -0.7481 C.ar    1  UNL11      -0.0370
     22 H           6.6178    0.3107   -1.1497 H       1  UNL11       0.0323
     23 H           7.1023   -1.1925   -0.3251 H       1  UNL11       0.0323
     24 H           6.2744   -1.3172   -1.9449 H       1  UNL11       0.0323
     25 H           4.2407    0.9621   -1.1198 H       1  UNL11       0.1548
     26 H           3.2539    0.1085    2.1641 H       1  UNL11       0.0637
     27 H           0.9940    0.0460    3.0162 H       1  UNL11       0.0655
     28 H           0.4152   -0.2024    3.6627 H       1  UNL11       0.0673
     29 H           0.9759   -0.6055    6.0992 H       1  UNL11       0.1423
     30 H           0.1372   -1.9793    6.8499 H       1  UNL11       0.1423
     31 H          -2.2940   -2.2959    6.1857 H       1  UNL11       0.0659
     32 H          -3.4454   -1.1388    2.2468 H       1  UNL11       0.0677
     33 H          -0.5433    0.0280   -0.9042 H       1  UNL11       0.0655
     34 H           1.7268    0.0861   -1.8136 H       1  UNL11       0.0637
     35 H          -3.9346   -2.9863    6.3615 H       1  UNL11       0.3292
@<TRIPOS>BOND
     1     1     2    1
     2     1    22    1
     3     1    23    1
     4     1    24    1
     5     2     3    2
     6     2     4   am
     7     4     5    1
     8     4    25    1
     9     5     6   ar
    10     6     7   ar
    11     6    26    1
    12     7     8   ar
    13     7    27    1
    14     8     9    1
    15     8    20   ar
    16     9    10    1
    17    10    11   ar
    18    11    12   ar
    19    11    28    1
    20    12    13    1
    21    12    14   ar
    22    13    29    1
    23    13    30    1
    24    14    15   ar
    25    14    31    1
    26    15    16    1
    27    15    19   ar
    28    16    17    2
    29    16    18    1
    30    19    10   ar
    31    19    32    1
    32    20    21   ar
    33    20    33    1
    34    21     5   ar
    35    21    34    1
    36    18    35    1
@<TRIPOS>MOLECULE
*****
 35 36 0 0 0
SMALL
GASTEIGER

@<TRIPOS>ATOM
      1 C           4.1639    2.6624   -0.5772 C.3     1  UNL11       0.0125
      2 C           4.7211    1.2850   -0.8414 C.2     1  UNL11       0.2141
      3 O           5.8414    1.2392   -1.3760 O.2     1  UNL11      -0.2758
      4 N           4.0182    0.1269   -0.5042 N.am    1  UNL11      -0.2857
      5 C           2.7433    0.1012    0.0886 C.ar    1  UNL11       0.0336
      6 C           2.4674    0.0885    1.4330 C.ar    1  UNL11      -0.0370
      7 C           1.1769    0.0554    1.9503 C.ar    1  UNL11      -0.0176
      8 C           0.1030    0.0339    1.0983 C.ar    1  UNL11       0.1286
      9 O          -1.2096    0.0003    1.6054 O.3     1  UNL11      -0.4559
     10 C          -1.5092    0.5776    2.8335 C.ar    1  UNL11       0.1323
     11 C          -0.5559    1.2027    3.6075 C.ar    1  UNL11       0.0015
     12 C          -0.8278    1.7853    4.8339 C.ar    1  UNL11       0.0302
     13 N           0.1904    2.4206    5.5988 N.pl3   1  UNL11      -0.3578
     14 C          -2.1320    1.7199    5.2766 C.ar    1  UNL11      -0.0107
     15 C          -3.1222    1.1062    4.5402 C.ar    1  UNL11       0.1268
     16 N          -4.4542    1.0555    5.0234 N.4     1  UNL11       0.0061
     17 O          -5.1822    0.1152    4.7242 O.2     1  UNL11      -0.1300
     18 O          -4.9361    2.0579    5.8285 O.2     1  UNL11      -0.3961
     19 C          -2.8042    0.5302    3.3068 C.ar    1  UNL11       0.0108
     20 C           0.3308    0.0457   -0.2556 C.ar    1  UNL11      -0.0176
     21 C           1.6095    0.0783   -0.7481 C.ar    1  UNL11      -0.0370
     22 H           3.4950    2.6317    0.3087 H       1  UNL11       0.0323
     23 H           5.0103    3.3308   -0.3152 H       1  UNL11       0.0323
     24 H           3.6638    2.9811   -1.4940 H       1  UNL11       0.0323
     25 H           4.4686   -0.8124   -0.7066 H       1  UNL11       0.1548
     26 H           3.2539    0.1085    2.1641 H       1  UNL11       0.0637
     27 H           0.9940    0.0460    3.0162 H       1  UNL11       0.0655
     28 H           0.4613    1.2314    3.2196 H       1  UNL11       0.0673
     29 H           1.0688    2.7572    5.1474 H       1  UNL11       0.1423
     30 H           0.0789    2.5588    6.6086 H       1  UNL11       0.1423
     31 H          -2.4001    2.1580    6.2265 H       1  UNL11       0.0659
     32 H          -3.5528    0.0440    2.7077 H       1  UNL11       0.0677
     33 H          -0.5433    0.0280   -0.9042 H       1  UNL11       0.0655
     34 H           1.7268    0.0861   -1.8136 H       1  UNL11       0.0637
     35 H          -4.3842    2.7787    6.0603 H       1  UNL11       0.3292
@<TRIPOS>BOND
     1     1     2    1
     2     1    22    1
     3     1    23    1
     4     1    24    1
     5     2     3    2
     6     2     4   am
     7     4     5    1
     8     4    25    1
     9     5     6   ar
    10     6     7   ar
    11     6    26    1
    12     7     8   ar
    13     7    27    1
    14     8     9    1
    15     8    20   ar
    16     9    10    1
    17    10    11   ar
    18    11    12   ar
    19    11    28    1
    20    12    13    1
    21    12    14   ar
    22    13    29    1
    23    13    30    1
    24    14    15   ar
    25    14    31    1
    26    15    16    1
    27    15    19   ar
    28    16    17    2
    29    16    18    1
    30    19    10   ar
    31    19    32    1
    32    20    21   ar
    33    20    33    1
    34    21     5   ar
    35    21    34    1
    36    18    35    1
@<TRIPOS>MOLECULE
*****
 35 36 0 0 0
SMALL
GASTEIGER

@<TRIPOS>ATOM
      1 C           5.8700    1.0886   -1.9537 C.3     1  UNL11       0.0125
      2 C           4.4857    1.1307   -1.3544 C.2     1  UNL11       0.2141
      3 O           3.7845    2.1094   -1.6603 O.2     1  UNL11      -0.2758
      4 N           4.0182    0.1269   -0.5042 N.am    1  UNL11      -0.2857
      5 C           2.7433    0.1012    0.0886 C.ar    1  UNL11       0.0336
      6 C           2.4674    0.0885    1.4330 C.ar    1  UNL11      -0.0370
      7 C           1.1769    0.0554    1.9503 C.ar    1  UNL11      -0.0176
      8 C           0.1030    0.0339    1.0983 C.ar    1  UNL11       0.1286
      9 O          -1.2096    0.0003    1.6054 O.3     1  UNL11      -0.4559
     10 C          -2.2557    0.5846    0.9015 C.ar    1  UNL11       0.1323
     11 C          -3.3568    1.1252    1.5293 C.ar    1  UNL11       0.0015
     12 C          -4.4120    1.7127    0.8520 C.ar    1  UNL11       0.0302
     13 N          -5.5295    2.2585    1.5438 N.pl3   1  UNL11      -0.3578
     14 C          -4.3265    1.7430   -0.5239 C.ar    1  UNL11      -0.0107
     15 C          -3.2468    1.2162   -1.1991 C.ar    1  UNL11       0.1268
     16 N          -3.1888    1.2628   -2.6151 N.4     1  UNL11       0.0061
     17 O          -3.7390    2.1741   -3.2239 O.2     1  UNL11      -0.1300
     18 O          -2.5171    0.2891   -3.3119 O.2     1  UNL11      -0.3961
     19 C          -2.2027    0.6318   -0.4762 C.ar    1  UNL11       0.0108
     20 C           0.3308    0.0457   -0.2556 C.ar    1  UNL11      -0.0176
     21 C           1.6095    0.0783   -0.7481 C.ar    1  UNL11      -0.0370
     22 H           6.1925    0.0331   -2.0766 H       1  UNL11       0.0323
     23 H           5.8167    1.5267   -2.9721 H       1  UNL11       0.0323
     24 H           6.5166    1.6713   -1.2946 H       1  UNL11       0.0323
     25 H           4.6638   -0.6851   -0.2811 H       1  UNL11       0.1548
     26 H           3.2539    0.1085    2.1641 H       1  UNL11       0.0637
     27 H           0.9940    0.0460    3.0162 H       1  UNL11       0.0655
     28 H          -3.3832    1.0799    2.6171 H       1  UNL11       0.0673
     29 H          -5.4570    2.5316    2.5482 H       1  UNL11       0.1423
     30 H          -6.4271    2.3931    1.0670 H       1  UNL11       0.1423
     31 H          -5.1216    2.1894   -1.1024 H       1  UNL11       0.0659
     32 H          -1.3464    0.2119   -0.9722 H       1  UNL11       0.0677
     33 H          -0.5433    0.0280   -0.9042 H       1  UNL11       0.0655
     34 H           1.7268    0.0861   -1.8136 H       1  UNL11       0.0637
     35 H          -2.0949   -0.4095   -2.8518 H       1  UNL11       0.3292
@<TRIPOS>BOND
     1     1     2    1
     2     1    22    1
     3     1    23    1
     4     1    24    1
     5     2     3    2
     6     2     4   am
     7     4     5    1
     8     4    25    1
     9     5     6   ar
    10     6     7   ar
    11     6    26    1
    12     7     8   ar
    13     7    27    1
    14     8     9    1
    15     8    20   ar
    16     9    10    1
    17    10    11   ar
    18    11    12   ar
    19    11    28    1
    20    12    13    1
    21    12    14   ar
    22    13    29    1
    23    13    30    1
    24    14    15   ar
    25    14    31    1
    26    15    16    1
    27    15    19   ar
    28    16    17    2
    29    16    18    1
    30    19    10   ar
    31    19    32    1
    32    20    21   ar
    33    20    33    1
    34    21     5   ar
    35    21    34    1
    36    18    35    1
@<TRIPOS>MOLECULE
*****
 35 36 0 0 0
SMALL
GASTEIGER

@<TRIPOS>ATOM
      1 C           6.0889    1.2321   -1.4768 C.3     1  UNL11       0.0125
      2 C           4.7211    1.2850   -0.8414 C.2     1  UNL11       0.2141
      3 O           4.2550    2.4178   -0.6349 O.2     1  UNL11      -0.2758
      4 N           4.0182    0.1269   -0.5042 N.am    1  UNL11      -0.2857
      5 C           2.7433    0.1012    0.0886 C.ar    1  UNL11       0.0336
      6 C           2.4674    0.0885    1.4330 C.ar    1  UNL11      -0.0370
      7 C           1.1769    0.0554    1.9503 C.ar    1  UNL11      -0.0176
      8 C           0.1030    0.0339    1.0983 C.ar    1  UNL11       0.1286
      9 O          -1.2096    0.0003    1.6054 O.3     1  UNL11      -0.4559
     10 C          -1.4817   -0.6051    2.8264 C.ar    1  UNL11       0.1323
     11 C          -2.6908   -1.2071    3.0986 C.ar    1  UNL11       0.0015
     12 C          -2.9872   -1.8168    4.3061 C.ar    1  UNL11       0.0302
     13 N          -4.2513   -2.4265    4.5420 N.pl3   1  UNL11      -0.3578
     14 C          -1.9985   -1.8041    5.2670 C.ar    1  UNL11      -0.0107
     15 C          -0.7725   -1.2153    5.0442 C.ar    1  UNL11       0.1268
     16 N           0.2236   -1.2190    6.0533 N.4     1  UNL11       0.0061
     17 O           1.3074   -0.6825    5.8502 O.2     1  UNL11      -0.1300
     18 O          -0.0195   -1.8225    7.2623 O.2     1  UNL11      -0.3961
     19 C          -0.5148   -0.6106    3.8105 C.ar    1  UNL11       0.0108
     20 C           0.3308    0.0457   -0.2556 C.ar    1  UNL11      -0.0176
     21 C           1.6095    0.0783   -0.7481 C.ar    1  UNL11      -0.0370
     22 H           6.1865    0.3034   -2.0777 H       1  UNL11       0.0323
     23 H           6.1709    2.0816   -2.1864 H       1  UNL11       0.0323
     24 H           6.8161    1.3089   -0.6661 H       1  UNL11       0.0323
     25 H           4.4686   -0.8124   -0.7066 H       1  UNL11       0.1548
     26 H           3.2539    0.1085    2.1641 H       1  UNL11       0.0637
     27 H           0.9940    0.0460    3.0162 H       1  UNL11       0.0655
     28 H          -3.4431   -1.1941    2.3113 H       1  UNL11       0.0673
     29 H          -4.8589   -2.7252    3.7481 H       1  UNL11       0.1423
     30 H          -4.5880   -2.5833    5.4976 H       1  UNL11       0.1423
     31 H          -2.1758   -2.2652    6.2273 H       1  UNL11       0.0659
     32 H           0.4308   -0.1426    3.6045 H       1  UNL11       0.0677
     33 H          -0.5433    0.0280   -0.9042 H       1  UNL11       0.0655
     34 H           1.7268    0.0861   -1.8136 H       1  UNL11       0.0637
     35 H          -0.8459   -2.2339    7.4228 H       1  UNL11       0.3292
@<TRIPOS>BOND
     1     1     2    1
     2     1    22    1
     3     1    23    1
     4     1    24    1
     5     2     3    2
     6     2     4   am
     7     4     5    1
     8     4    25    1
     9     5     6   ar
    10     6     7   ar
    11     6    26    1
    12     7     8   ar
    13     7    27    1
    14     8     9    1
    15     8    20   ar
    16     9    10    1
    17    10    11   ar
    18    11    12   ar
    19    11    28    1
    20    12    13    1
    21    12    14   ar
    22    13    29    1
    23    13    30    1
    24    14    15   ar
    25    14    31    1
    26    15    16    1
    27    15    19   ar
    28    16    17    2
    29    16    18    1
    30    19    10   ar
    31    19    32    1
    32    20    21   ar
    33    20    33    1
    34    21     5   ar
    35    21    34    1
    36    18    35    1
@<TRIPOS>MOLECULE
*****
 35 36 0 0 0
SMALL
GASTEIGER

@<TRIPOS>ATOM
      1 C           6.1261   -0.8940   -1.4890 C.3     1  UNL11       0.0125
      2 C           4.7610   -1.0020   -0.8548 C.2     1  UNL11       0.2141
      3 O           4.3347   -2.1527   -0.6618 O.2     1  UNL11      -0.2758
      4 N           4.0182    0.1269   -0.5042 N.am    1  UNL11      -0.2857
      5 C           2.7433    0.1012    0.0886 C.ar    1  UNL11       0.0336
      6 C           2.4674    0.0885    1.4330 C.ar    1  UNL11      -0.0370
      7 C           1.1769    0.0554    1.9503 C.ar    1  UNL11      -0.0176
      8 C           0.1030    0.0339    1.0983 C.ar    1  UNL11       0.1286
      9 O          -1.2096    0.0003    1.6054 O.3     1  UNL11      -0.4559
     10 C          -2.3004   -0.0346    0.7450 C.ar    1  UNL11       0.1323
     11 C          -2.2379   -0.6155   -0.5029 C.ar    1  UNL11       0.0015
     12 C          -3.3092   -0.6636   -1.3789 C.ar    1  UNL11       0.0302
     13 N          -3.1975   -1.2749   -2.6593 N.pl3   1  UNL11      -0.3578
     14 C          -4.4879   -0.0909   -0.9500 C.ar    1  UNL11      -0.0107
     15 C          -4.6019    0.5023    0.2887 C.ar    1  UNL11       0.1268
     16 N          -5.8284    1.0827    0.7003 N.4     1  UNL11       0.0061
     17 O          -5.9173    1.6186    1.7997 O.2     1  UNL11      -0.1300
     18 O          -6.9222    1.0482   -0.1288 O.2     1  UNL11      -0.3961
     19 C          -3.4953    0.5291    1.1422 C.ar    1  UNL11       0.0108
     20 C           0.3308    0.0457   -0.2556 C.ar    1  UNL11      -0.0176
     21 C           1.6095    0.0783   -0.7481 C.ar    1  UNL11      -0.0370
     22 H           6.6224    0.0403   -1.1516 H       1  UNL11       0.0323
     23 H           6.7451   -1.7367   -1.1169 H       1  UNL11       0.0323
     24 H           5.9766   -0.9463   -2.5693 H       1  UNL11       0.0323
     25 H           4.4367    1.0836   -0.6929 H       1  UNL11       0.1548
     26 H           3.2539    0.1085    2.1641 H       1  UNL11       0.0637
     27 H           0.9940    0.0460    3.0162 H       1  UNL11       0.0655
     28 H          -1.2876   -1.0559   -0.8012 H       1  UNL11       0.0673
     29 H          -2.4487   -1.9745   -2.8558 H       1  UNL11       0.1423
     30 H          -3.8516   -1.0383   -3.4125 H       1  UNL11       0.1423
     31 H          -5.3554   -0.1001   -1.5930 H       1  UNL11       0.0659
     32 H          -3.5507    0.9839    2.1147 H       1  UNL11       0.0677
     33 H          -0.5433    0.0280   -0.9042 H       1  UNL11       0.0655
     34 H           1.7268    0.0861   -1.8136 H       1  UNL11       0.0637
     35 H          -6.8598    0.6400   -0.9699 H       1  UNL11       0.3292
@<TRIPOS>BOND
     1     1     2    1
     2     1    22    1
     3     1    23    1
     4     1    24    1
     5     2     3    2
     6     2     4   am
     7     4     5    1
     8     4    25    1
     9     5     6   ar
    10     6     7   ar
    11     6    26    1
    12     7     8   ar
    13     7    27    1
    14     8     9    1
    15     8    20   ar
    16     9    10    1
    17    10    11   ar
    18    11    12   ar
    19    11    28    1
    20    12    13    1
    21    12    14   ar
    22    13    29    1
    23    13    30    1
    24    14    15   ar
    25    14    31    1
    26    15    16    1
    27    15    19   ar
    28    16    17    2
    29    16    18    1
    30    19    10   ar
    31    19    32    1
    32    20    21   ar
    33    20    33    1
    34    21     5   ar
    35    21    34    1
    36    18    35    1
@<TRIPOS>MOLECULE
*****
 35 36 0 0 0
SMALL
GASTEIGER

@<TRIPOS>ATOM
      1 C           3.7064   -2.0563   -1.7657 C.3     1  UNL11       0.0125
      2 C           4.5202   -0.8499   -1.3660 C.2     1  UNL11       0.2141
      3 O           5.6629   -0.7745   -1.8474 O.2     1  UNL11      -0.2758
      4 N           4.0182    0.1269   -0.5042 N.am    1  UNL11      -0.2857
      5 C           2.7433    0.1012    0.0886 C.ar    1  UNL11       0.0336
      6 C           2.4674    0.0885    1.4330 C.ar    1  UNL11      -0.0370
      7 C           1.1769    0.0554    1.9503 C.ar    1  UNL11      -0.0176
      8 C           0.1030    0.0339    1.0983 C.ar    1  UNL11       0.1286
      9 O          -1.2096    0.0003    1.6054 O.3     1  UNL11      -0.4559
     10 C          -1.5092    0.5776    2.8335 C.ar    1  UNL11       0.1323
     11 C          -2.5116    0.0994    3.6491 C.ar    1  UNL11       0.0015
     12 C          -2.8302    0.6559    4.8763 C.ar    1  UNL11       0.0302
     13 N          -3.8751    0.1272    5.6852 N.pl3   1  UNL11      -0.3578
     14 C          -2.0861    1.7459    5.2756 C.ar    1  UNL11      -0.0107
     15 C          -1.0731    2.2621    4.4966 C.ar    1  UNL11       0.1268
     16 N          -0.3260    3.3845    4.9357 N.4     1  UNL11       0.0061
     17 O          -0.1596    3.5824    6.1343 O.2     1  UNL11      -0.1300
     18 O           0.2148    4.2551    4.0221 O.2     1  UNL11      -0.3961
     19 C          -0.7844    1.6698    3.2638 C.ar    1  UNL11       0.0108
     20 C           0.3308    0.0457   -0.2556 C.ar    1  UNL11      -0.0176
     21 C           1.6095    0.0783   -0.7481 C.ar    1  UNL11      -0.0370
     22 H           2.6260   -1.7999   -1.7524 H       1  UNL11       0.0323
     23 H           3.9614   -2.3100   -2.8157 H       1  UNL11       0.0323
     24 H           3.9753   -2.8600   -1.0773 H       1  UNL11       0.0323
     25 H           4.6363    0.9569   -0.2692 H       1  UNL11       0.1548
     26 H           3.2539    0.1085    2.1641 H       1  UNL11       0.0637
     27 H           0.9940    0.0460    3.0162 H       1  UNL11       0.0655
     28 H          -3.0742   -0.7631    3.2948 H       1  UNL11       0.0673
     29 H          -4.2078   -0.8534    5.5575 H       1  UNL11       0.1423
     30 H          -4.3202    0.7014    6.4086 H       1  UNL11       0.1423
     31 H          -2.2919    2.2193    6.2241 H       1  UNL11       0.0659
     32 H          -0.0009    2.0478    2.6323 H       1  UNL11       0.0677
     33 H          -0.5433    0.0280   -0.9042 H       1  UNL11       0.0655
     34 H           1.7268    0.0861   -1.8136 H       1  UNL11       0.0637
     35 H           0.0907    4.1087    3.1050 H       1  UNL11       0.3292
@<TRIPOS>BOND
     1     1     2    1
     2     1    22    1
     3     1    23    1
     4     1    24    1
     5     2     3    2
     6     2     4   am
     7     4     5    1
     8     4    25    1
     9     5     6   ar
    10     6     7   ar
    11     6    26    1
    12     7     8   ar
    13     7    27    1
    14     8     9    1
    15     8    20   ar
    16     9    10    1
    17    10    11   ar
    18    11    12   ar
    19    11    28    1
    20    12    13    1
    21    12    14   ar
    22    13    29    1
    23    13    30    1
    24    14    15   ar
    25    14    31    1
    26    15    16    1
    27    15    19   ar
    28    16    17    2
    29    16    18    1
    30    19    10   ar
    31    19    32    1
    32    20    21   ar
    33    20    33    1
    34    21     5   ar
    35    21    34    1
    36    18    35    1
@<TRIPOS>MOLECULE
*****
 35 36 0 0 0
SMALL
GASTEIGER

@<TRIPOS>ATOM
      1 C           5.8700    1.0886   -1.9537 C.3     1  UNL11       0.0125
      2 C           4.4857    1.1307   -1.3544 C.2     1  UNL11       0.2141
      3 O           3.7845    2.1094   -1.6603 O.2     1  UNL11      -0.2758
      4 N           4.0182    0.1269   -0.5042 N.am    1  UNL11      -0.2857
      5 C           2.7433    0.1012    0.0886 C.ar    1  UNL11       0.0336
      6 C           2.4674    0.0885    1.4330 C.ar    1  UNL11      -0.0370
      7 C           1.1769    0.0554    1.9503 C.ar    1  UNL11      -0.0176
      8 C           0.1030    0.0339    1.0983 C.ar    1  UNL11       0.1286
      9 O          -1.2096    0.0003    1.6054 O.3     1  UNL11      -0.4559
     10 C          -2.2557    0.5846    0.9015 C.ar    1  UNL11       0.1323
     11 C          -3.5472    0.1092    0.9689 C.ar    1  UNL11       0.0015
     12 C          -4.6069    0.6725    0.2782 C.ar    1  UNL11       0.0302
     13 N          -5.9255    0.1464    0.3788 N.pl3   1  UNL11      -0.3578
     14 C          -4.3220    1.7669   -0.5107 C.ar    1  UNL11      -0.0107
     15 C          -3.0472    2.2807   -0.6120 C.ar    1  UNL11       0.1268
     16 N          -2.7867    3.4076   -1.4322 N.4     1  UNL11       0.0061
     17 O          -3.4672    3.6118   -2.4316 O.2     1  UNL11      -0.1300
     18 O          -1.7722    4.2757   -1.1124 O.2     1  UNL11      -0.3961
     19 C          -2.0060    1.6812    0.1025 C.ar    1  UNL11       0.0108
     20 C           0.3308    0.0457   -0.2556 C.ar    1  UNL11      -0.0176
     21 C           1.6095    0.0783   -0.7481 C.ar    1  UNL11      -0.0370
     22 H           6.1925    0.0331   -2.0766 H       1  UNL11       0.0323
     23 H           5.8167    1.5267   -2.9721 H       1  UNL11       0.0323
     24 H           6.5166    1.6713   -1.2946 H       1  UNL11       0.0323
     25 H           4.6638   -0.6851   -0.2811 H       1  UNL11       0.1548
     26 H           3.2539    0.1085    2.1641 H       1  UNL11       0.0637
     27 H           0.9940    0.0460    3.0162 H       1  UNL11       0.0655
     28 H          -3.7275   -0.7570    1.6040 H       1  UNL11       0.0673
     29 H          -6.2065   -0.4436    1.1922 H       1  UNL11       0.1423
     30 H          -6.6236    0.3380   -0.3471 H       1  UNL11       0.1423
     31 H          -5.1109    2.2457   -1.0715 H       1  UNL11       0.0659
     32 H          -1.0004    2.0572    0.0456 H       1  UNL11       0.0677
     33 H          -0.5433    0.0280   -0.9042 H       1  UNL11       0.0655
     34 H           1.7268    0.0861   -1.8136 H       1  UNL11       0.0637
     35 H          -1.2491    4.1244   -0.3498 H       1  UNL11       0.3292
@<TRIPOS>BOND
     1     1     2    1
     2     1    22    1
     3     1    23    1
     4     1    24    1
     5     2     3    2
     6     2     4   am
     7     4     5    1
     8     4    25    1
     9     5     6   ar
    10     6     7   ar
    11     6    26    1
    12     7     8   ar
    13     7    27    1
    14     8     9    1
    15     8    20   ar
    16     9    10    1
    17    10    11   ar
    18    11    12   ar
    19    11    28    1
    20    12    13    1
    21    12    14   ar
    22    13    29    1
    23    13    30    1
    24    14    15   ar
    25    14    31    1
    26    15    16    1
    27    15    19   ar
    28    16    17    2
    29    16    18    1
    30    19    10   ar
    31    19    32    1
    32    20    21   ar
    33    20    33    1
    34    21     5   ar
    35    21    34    1
    36    18    35    1
@<TRIPOS>MOLECULE
*****
 35 36 0 0 0
SMALL
GASTEIGER

@<TRIPOS>ATOM
      1 C           6.1261   -0.8940   -1.4890 C.3     1  UNL11       0.0125
      2 C           4.7610   -1.0020   -0.8548 C.2     1  UNL11       0.2141
      3 O           4.3347   -2.1527   -0.6618 O.2     1  UNL11      -0.2758
      4 N           4.0182    0.1269   -0.5042 N.am    1  UNL11      -0.2857
      5 C           2.7433    0.1012    0.0886 C.ar    1  UNL11       0.0336
      6 C           2.4674    0.0885    1.4330 C.ar    1  UNL11      -0.0370
      7 C           1.1769    0.0554    1.9503 C.ar    1  UNL11      -0.0176
      8 C           0.1030    0.0339    1.0983 C.ar    1  UNL11       0.1286
      9 O          -1.2096    0.0003    1.6054 O.3     1  UNL11      -0.4559
     10 C          -1.5092    0.5776    2.8335 C.ar    1  UNL11       0.1323
     11 C          -0.8157    1.6603    3.3290 C.ar    1  UNL11       0.0015
     12 C          -1.0938    2.2538    4.5488 C.ar    1  UNL11       0.0302
     13 N          -0.3497    3.3718    5.0199 N.pl3   1  UNL11      -0.3578
     14 C          -2.1259    1.7091    5.2832 C.ar    1  UNL11      -0.0107
     15 C          -2.8499    0.6267    4.8320 C.ar    1  UNL11       0.1268
     16 N          -3.9057    0.0897    5.6113 N.4     1  UNL11       0.0061
     17 O          -4.5370   -0.8808    5.2070 O.2     1  UNL11      -0.1300
     18 O          -4.2268    0.6524    6.8217 O.2     1  UNL11      -0.3961
     19 C          -2.5358    0.0577    3.5944 C.ar    1  UNL11       0.0108
     20 C           0.3308    0.0457   -0.2556 C.ar    1  UNL11      -0.0176
     21 C           1.6095    0.0783   -0.7481 C.ar    1  UNL11      -0.0370
     22 H           6.6224    0.0403   -1.1516 H       1  UNL11       0.0323
     23 H           6.7451   -1.7367   -1.1169 H       1  UNL11       0.0323
     24 H           5.9766   -0.9463   -2.5693 H       1  UNL11       0.0323
     25 H           4.4367    1.0836   -0.6929 H       1  UNL11       0.1548
     26 H           3.2539    0.1085    2.1641 H       1  UNL11       0.0637
     27 H           0.9940    0.0460    3.0162 H       1  UNL11       0.0655
     28 H          -0.0084    2.0586    2.7162 H       1  UNL11       0.0673
     29 H           0.1864    3.9758    4.3593 H       1  UNL11       0.1423
     30 H          -0.3270    3.6038    6.0183 H       1  UNL11       0.1423
     31 H          -2.3857    2.1327    6.2419 H       1  UNL11       0.0659
     32 H          -3.0809   -0.7870    3.2135 H       1  UNL11       0.0677
     33 H          -0.5433    0.0280   -0.9042 H       1  UNL11       0.0655
     34 H           1.7268    0.0861   -1.8136 H       1  UNL11       0.0637
     35 H          -3.7478    1.3941    7.1354 H       1  UNL11       0.3292
@<TRIPOS>BOND
     1     1     2    1
     2     1    22    1
     3     1    23    1
     4     1    24    1
     5     2     3    2
     6     2     4   am
     7     4     5    1
     8     4    25    1
     9     5     6   ar
    10     6     7   ar
    11     6    26    1
    12     7     8   ar
    13     7    27    1
    14     8     9    1
    15     8    20   ar
    16     9    10    1
    17    10    11   ar
    18    11    12   ar
    19    11    28    1
    20    12    13    1
    21    12    14   ar
    22    13    29    1
    23    13    30    1
    24    14    15   ar
    25    14    31    1
    26    15    16    1
    27    15    19   ar
    28    16    17    2
    29    16    18    1
    30    19    10   ar
    31    19    32    1
    32    20    21   ar
    33    20    33    1
    34    21     5   ar
    35    21    34    1
    36    18    35    1
@<TRIPOS>MOLECULE
*****
 35 36 0 0 0
SMALL
GASTEIGER

@<TRIPOS>ATOM
      1 C           3.6416    2.3286   -1.7150 C.3     1  UNL11       0.0125
      2 C           4.4857    1.1307   -1.3544 C.2     1  UNL11       0.2141
      3 O           5.6209    1.0877   -1.8569 O.2     1  UNL11      -0.2758
      4 N           4.0182    0.1269   -0.5042 N.am    1  UNL11      -0.2857
      5 C           2.7433    0.1012    0.0886 C.ar    1  UNL11       0.0336
      6 C           2.4674    0.0885    1.4330 C.ar    1  UNL11      -0.0370
      7 C           1.1769    0.0554    1.9503 C.ar    1  UNL11      -0.0176
      8 C           0.1030    0.0339    1.0983 C.ar    1  UNL11       0.1286
      9 O          -1.2096    0.0003    1.6054 O.3     1  UNL11      -0.4559
     10 C          -2.2276   -0.6236    0.8943 C.ar    1  UNL11       0.1323
     11 C          -3.5398   -0.2095    0.9670 C.ar    1  UNL11       0.0015
     12 C          -4.5724   -0.8133    0.2694 C.ar    1  UNL11       0.0302
     13 N          -5.9139   -0.3503    0.3760 N.pl3   1  UNL11      -0.3578
     14 C          -4.2370   -1.8836   -0.5326 C.ar    1  UNL11      -0.0107
     15 C          -2.9397   -2.3363   -0.6398 C.ar    1  UNL11       0.1268
     16 N          -2.6274   -3.4399   -1.4734 N.4     1  UNL11       0.0061
     17 O          -3.2997   -3.6653   -2.4738 O.2     1  UNL11      -0.1300
     18 O          -1.5714   -4.2616   -1.1656 O.2     1  UNL11      -0.3961
     19 C          -1.9273   -1.6977    0.0822 C.ar    1  UNL11       0.0108
     20 C           0.3308    0.0457   -0.2556 C.ar    1  UNL11      -0.0176
     21 C           1.6095    0.0783   -0.7481 C.ar    1  UNL11      -0.0370
     22 H           2.9423    2.5574   -0.8832 H       1  UNL11       0.0323
     23 H           4.3149    3.2051   -1.8163 H       1  UNL11       0.0323
     24 H           3.1416    2.0900   -2.6558 H       1  UNL11       0.0323
     25 H           4.6638   -0.6851   -0.2811 H       1  UNL11       0.1548
     26 H           3.2539    0.1085    2.1641 H       1  UNL11       0.0637
     27 H           0.9940    0.0460    3.0162 H       1  UNL11       0.0655
     28 H          -3.7600    0.6396    1.6124 H       1  UNL11       0.0673
     29 H          -6.1222    0.6194    0.6998 H       1  UNL11       0.1423
     30 H          -6.7008   -0.9624    0.1363 H       1  UNL11       0.1423
     31 H          -5.0030   -2.3919   -1.0992 H       1  UNL11       0.0659
     32 H          -0.9054   -2.0257    0.0209 H       1  UNL11       0.0677
     33 H          -0.5433    0.0280   -0.9042 H       1  UNL11       0.0655
     34 H           1.7268    0.0861   -1.8136 H       1  UNL11       0.0637
     35 H          -1.0543   -4.0940   -0.4024 H       1  UNL11       0.3292
@<TRIPOS>BOND
     1     1     2    1
     2     1    22    1
     3     1    23    1
     4     1    24    1
     5     2     3    2
     6     2     4   am
     7     4     5    1
     8     4    25    1
     9     5     6   ar
    10     6     7   ar
    11     6    26    1
    12     7     8   ar
    13     7    27    1
    14     8     9    1
    15     8    20   ar
    16     9    10    1
    17    10    11   ar
    18    11    12   ar
    19    11    28    1
    20    12    13    1
    21    12    14   ar
    22    13    29    1
    23    13    30    1
    24    14    15   ar
    25    14    31    1
    26    15    16    1
    27    15    19   ar
    28    16    17    2
    29    16    18    1
    30    19    10   ar
    31    19    32    1
    32    20    21   ar
    33    20    33    1
    34    21     5   ar
    35    21    34    1
    36    18    35    1
@<TRIPOS>MOLECULE
*****
 35 36 0 0 0
SMALL
GASTEIGER

@<TRIPOS>ATOM
      1 C           6.5384   -0.1883   -0.5717 C.3     1  UNL11       0.0125
      2 C           5.2045   -0.2430    0.1321 C.2     1  UNL11       0.2141
      3 O           5.2211   -0.6358    1.3104 O.2     1  UNL11      -0.2758
      4 N           4.0182    0.1269   -0.5042 N.am    1  UNL11      -0.2857
      5 C           2.7433    0.1012    0.0886 C.ar    1  UNL11       0.0336
      6 C           2.4674    0.0885    1.4330 C.ar    1  UNL11      -0.0370
      7 C           1.1769    0.0554    1.9503 C.ar    1  UNL11      -0.0176
      8 C           0.1030    0.0339    1.0983 C.ar    1  UNL11       0.1286
      9 O          -1.2096    0.0003    1.6054 O.3     1  UNL11      -0.4559
     10 C          -2.2276   -0.6236    0.8943 C.ar    1  UNL11       0.1323
     11 C          -3.5398   -0.2095    0.9670 C.ar    1  UNL11       0.0015
     12 C          -4.5724   -0.8133    0.2694 C.ar    1  UNL11       0.0302
     13 N          -5.9139   -0.3503    0.3760 N.pl3   1  UNL11      -0.3578
     14 C          -4.2370   -1.8836   -0.5326 C.ar    1  UNL11      -0.0107
     15 C          -2.9397   -2.3363   -0.6398 C.ar    1  UNL11       0.1268
     16 N          -2.6274   -3.4399   -1.4734 N.4     1  UNL11       0.0061
     17 O          -3.5136   -4.0030   -2.1068 O.2     1  UNL11      -0.1300
     18 O          -1.3322   -3.8838   -1.5761 O.2     1  UNL11      -0.3961
     19 C          -1.9273   -1.6977    0.0822 C.ar    1  UNL11       0.0108
     20 C           0.3308    0.0457   -0.2556 C.ar    1  UNL11      -0.0176
     21 C           1.6095    0.0783   -0.7481 C.ar    1  UNL11      -0.0370
     22 H           6.5227    0.6121   -1.3413 H       1  UNL11       0.0323
     23 H           7.3082    0.1007    0.1738 H       1  UNL11       0.0323
     24 H           6.7212   -1.1849   -0.9784 H       1  UNL11       0.0323
     25 H           4.0686    0.4557   -1.5119 H       1  UNL11       0.1548
     26 H           3.2539    0.1085    2.1641 H       1  UNL11       0.0637
     27 H           0.9940    0.0460    3.0162 H       1  UNL11       0.0655
     28 H          -3.7600    0.6396    1.6124 H       1  UNL11       0.0673
     29 H          -6.1222    0.6194    0.6998 H       1  UNL11       0.1423
     30 H          -6.7008   -0.9624    0.1363 H       1  UNL11       0.1423
     31 H          -5.0030   -2.3919   -1.0992 H       1  UNL11       0.0659
     32 H          -0.9054   -2.0257    0.0209 H       1  UNL11       0.0677
     33 H          -0.5433    0.0280   -0.9042 H       1  UNL11       0.0655
     34 H           1.7268    0.0861   -1.8136 H       1  UNL11       0.0637
     35 H          -0.6511   -3.4572   -1.0944 H       1  UNL11       0.3292
@<TRIPOS>BOND
     1     1     2    1
     2     1    22    1
     3     1    23    1
     4     1    24    1
     5     2     3    2
     6     2     4   am
     7     4     5    1
     8     4    25    1
     9     5     6   ar
    10     6     7   ar
    11     6    26    1
    12     7     8   ar
    13     7    27    1
    14     8     9    1
    15     8    20   ar
    16     9    10    1
    17    10    11   ar
    18    11    12   ar
    19    11    28    1
    20    12    13    1
    21    12    14   ar
    22    13    29    1
    23    13    30    1
    24    14    15   ar
    25    14    31    1
    26    15    16    1
    27    15    19   ar
    28    16    17    2
    29    16    18    1
    30    19    10   ar
    31    19    32    1
    32    20    21   ar
    33    20    33    1
    34    21     5   ar
    35    21    34    1
    36    18    35    1
@<TRIPOS>MOLECULE
*****
 35 36 0 0 0
SMALL
GASTEIGER

@<TRIPOS>ATOM
      1 C           5.9022   -0.7527   -1.9643 C.3     1  UNL11       0.0125
      2 C           4.5202   -0.8499   -1.3660 C.2     1  UNL11       0.2141
      3 O           3.8535   -1.8488   -1.6835 O.2     1  UNL11      -0.2758
      4 N           4.0182    0.1269   -0.5042 N.am    1  UNL11      -0.2857
      5 C           2.7433    0.1012    0.0886 C.ar    1  UNL11       0.0336
      6 C           2.4674    0.0885    1.4330 C.ar    1  UNL11      -0.0370
      7 C           1.1769    0.0554    1.9503 C.ar    1  UNL11      -0.0176
      8 C           0.1030    0.0339    1.0983 C.ar    1  UNL11       0.1286
      9 O          -1.2096    0.0003    1.6054 O.3     1  UNL11      -0.4559
     10 C          -1.4390   -0.0133    2.9760 C.ar    1  UNL11       0.1323
     11 C          -0.5773    0.5770    3.8746 C.ar    1  UNL11       0.0015
     12 C          -0.7823    0.5776    5.2440 C.ar    1  UNL11       0.0302
     13 N           0.1364    1.2010    6.1344 N.pl3   1  UNL11      -0.3578
     14 C          -1.9191   -0.0545    5.7017 C.ar    1  UNL11      -0.0107
     15 C          -2.8123   -0.6597    4.8442 C.ar    1  UNL11       0.1268
     16 N          -3.9724   -1.3018    5.3465 N.4     1  UNL11       0.0061
     17 O          -3.9608   -1.8083    6.4631 O.2     1  UNL11      -0.1300
     18 O          -5.1142   -1.3599    4.5863 O.2     1  UNL11      -0.3961
     19 C          -2.5668   -0.6371    3.4682 C.ar    1  UNL11       0.0108
     20 C           0.3308    0.0457   -0.2556 C.ar    1  UNL11      -0.0176
     21 C           1.6095    0.0783   -0.7481 C.ar    1  UNL11      -0.0370
     22 H           6.5700   -0.1948   -1.2745 H       1  UNL11       0.0323
     23 H           6.3140   -1.7802   -2.0459 H       1  UNL11       0.0323
     24 H           5.7895   -0.2818   -2.9429 H       1  UNL11       0.0323
     25 H           4.6363    0.9569   -0.2692 H       1  UNL11       0.1548
     26 H           3.2539    0.1085    2.1641 H       1  UNL11       0.0637
     27 H           0.9940    0.0460    3.0162 H       1  UNL11       0.0655
     28 H           0.3082    1.0651    3.4698 H       1  UNL11       0.0673
     29 H           0.7940    1.9375    5.7971 H       1  UNL11       0.1423
     30 H           0.1686    0.9370    7.1245 H       1  UNL11       0.1423
     31 H          -2.1286   -0.0842    6.7606 H       1  UNL11       0.0659
     32 H          -3.2433   -1.0996    2.7724 H       1  UNL11       0.0677
     33 H          -0.5433    0.0280   -0.9042 H       1  UNL11       0.0655
     34 H           1.7268    0.0861   -1.8136 H       1  UNL11       0.0637
     35 H          -5.1286   -0.9745    3.7323 H       1  UNL11       0.3292
@<TRIPOS>BOND
     1     1     2    1
     2     1    22    1
     3     1    23    1
     4     1    24    1
     5     2     3    2
     6     2     4   am
     7     4     5    1
     8     4    25    1
     9     5     6   ar
    10     6     7   ar
    11     6    26    1
    12     7     8   ar
    13     7    27    1
    14     8     9    1
    15     8    20   ar
    16     9    10    1
    17    10    11   ar
    18    11    12   ar
    19    11    28    1
    20    12    13    1
    21    12    14   ar
    22    13    29    1
    23    13    30    1
    24    14    15   ar
    25    14    31    1
    26    15    16    1
    27    15    19   ar
    28    16    17    2
    29    16    18    1
    30    19    10   ar
    31    19    32    1
    32    20    21   ar
    33    20    33    1
    34    21     5   ar
    35    21    34    1
    36    18    35    1
@<TRIPOS>MOLECULE
*****
 35 36 0 0 0
SMALL
GASTEIGER

@<TRIPOS>ATOM
      1 C           6.5258    0.5307   -0.5675 C.3     1  UNL11       0.0125
      2 C           5.1910    0.5304    0.1366 C.2     1  UNL11       0.2141
      3 O           5.1942    0.9097    1.3195 O.2     1  UNL11      -0.2758
      4 N           4.0182    0.1269   -0.5042 N.am    1  UNL11      -0.2857
      5 C           2.7433    0.1012    0.0886 C.ar    1  UNL11       0.0336
      6 C           2.4674    0.0885    1.4330 C.ar    1  UNL11      -0.0370
      7 C           1.1769    0.0554    1.9503 C.ar    1  UNL11      -0.0176
      8 C           0.1030    0.0339    1.0983 C.ar    1  UNL11       0.1286
      9 O          -1.2096    0.0003    1.6054 O.3     1  UNL11      -0.4559
     10 C          -2.2557    0.5846    0.9015 C.ar    1  UNL11       0.1323
     11 C          -2.0730    1.6721    0.0754 C.ar    1  UNL11       0.0015
     12 C          -3.0976    2.2728   -0.6365 C.ar    1  UNL11       0.0302
     13 N          -2.8610    3.3955   -1.4786 N.pl3   1  UNL11      -0.3578
     14 C          -4.3567    1.7302   -0.4896 C.ar    1  UNL11      -0.0107
     15 C          -4.5918    0.6431    0.3243 C.ar    1  UNL11       0.1268
     16 N          -5.8986    0.1085    0.4541 N.4     1  UNL11       0.0061
     17 O          -6.8335    0.6126   -0.1586 O.2     1  UNL11      -0.1300
     18 O          -6.1244   -0.9757    1.2656 O.2     1  UNL11      -0.3961
     19 C          -3.5286    0.0670    1.0255 C.ar    1  UNL11       0.0108
     20 C           0.3308    0.0457   -0.2556 C.ar    1  UNL11      -0.0176
     21 C           1.6095    0.0783   -0.7481 C.ar    1  UNL11      -0.0370
     22 H           6.3753    0.7011   -1.6545 H       1  UNL11       0.0323
     23 H           7.1141    1.3919   -0.1879 H       1  UNL11       0.0323
     24 H           7.0051   -0.4222   -0.3348 H       1  UNL11       0.0323
     25 H           4.0793   -0.1854   -1.5165 H       1  UNL11       0.1548
     26 H           3.2539    0.1085    2.1641 H       1  UNL11       0.0637
     27 H           0.9940    0.0460    3.0162 H       1  UNL11       0.0655
     28 H          -1.0624    2.0686   -0.0114 H       1  UNL11       0.0673
     29 H          -1.9053    3.5991   -1.8445 H       1  UNL11       0.1423
     30 H          -3.6263    4.0252   -1.7408 H       1  UNL11       0.1423
     31 H          -5.1927    2.1592   -1.0217 H       1  UNL11       0.0659
     32 H          -3.6779   -0.7814    1.6685 H       1  UNL11       0.0677
     33 H          -0.5433    0.0280   -0.9042 H       1  UNL11       0.0655
     34 H           1.7268    0.0861   -1.8136 H       1  UNL11       0.0637
     35 H          -5.4137   -1.3649    1.7361 H       1  UNL11       0.3292
@<TRIPOS>BOND
     1     1     2    1
     2     1    22    1
     3     1    23    1
     4     1    24    1
     5     2     3    2
     6     2     4   am
     7     4     5    1
     8     4    25    1
     9     5     6   ar
    10     6     7   ar
    11     6    26    1
    12     7     8   ar
    13     7    27    1
    14     8     9    1
    15     8    20   ar
    16     9    10    1
    17    10    11   ar
    18    11    12   ar
    19    11    28    1
    20    12    13    1
    21    12    14   ar
    22    13    29    1
    23    13    30    1
    24    14    15   ar
    25    14    31    1
    26    15    16    1
    27    15    19   ar
    28    16    17    2
    29    16    18    1
    30    19    10   ar
    31    19    32    1
    32    20    21   ar
    33    20    33    1
    34    21     5   ar
    35    21    34    1
    36    18    35    1
@<TRIPOS>MOLECULE
*****
 35 36 0 0 0
SMALL
GASTEIGER

@<TRIPOS>ATOM
      1 C           5.2756    0.1199    1.7035 C.3     1  UNL11       0.0125
      2 C           5.2262    0.1438    0.1954 C.2     1  UNL11       0.2141
      3 O           6.3216    0.1794   -0.3893 O.2     1  UNL11      -0.2758
      4 N           4.0182    0.1269   -0.5042 N.am    1  UNL11      -0.2857
      5 C           2.7433    0.1012    0.0886 C.ar    1  UNL11       0.0336
      6 C           2.4674    0.0885    1.4330 C.ar    1  UNL11      -0.0370
      7 C           1.1769    0.0554    1.9503 C.ar    1  UNL11      -0.0176
      8 C           0.1030    0.0339    1.0983 C.ar    1  UNL11       0.1286
      9 O          -1.2096    0.0003    1.6054 O.3     1  UNL11      -0.4559
     10 C          -1.4390   -0.0133    2.9760 C.ar    1  UNL11       0.1323
     11 C          -0.5505   -0.5737    3.8676 C.ar    1  UNL11       0.0015
     12 C          -0.7550   -0.6005    5.2369 C.ar    1  UNL11       0.0302
     13 N           0.1920   -1.1911    6.1200 N.pl3   1  UNL11      -0.3578
     14 C          -1.9198   -0.0274    5.7018 C.ar    1  UNL11      -0.0107
     15 C          -2.8403    0.5460    4.8514 C.ar    1  UNL11       0.1268
     16 N          -4.0290    1.1273    5.3611 N.4     1  UNL11       0.0061
     17 O          -4.2480    1.1227    6.5676 O.2     1  UNL11      -0.1300
     18 O          -4.9404    1.6980    4.5076 O.2     1  UNL11      -0.3961
     19 C          -2.5945    0.5514    3.4754 C.ar    1  UNL11       0.0108
     20 C           0.3308    0.0457   -0.2556 C.ar    1  UNL11      -0.0176
     21 C           1.6095    0.0783   -0.7481 C.ar    1  UNL11      -0.0370
     22 H           4.3886   -0.4191    2.0983 H       1  UNL11       0.0323
     23 H           6.1674   -0.4662    2.0086 H       1  UNL11       0.0323
     24 H           5.3406    1.1588    2.0332 H       1  UNL11       0.0323
     25 H           4.0504    0.1351   -1.5648 H       1  UNL11       0.1548
     26 H           3.2539    0.1085    2.1641 H       1  UNL11       0.0637
     27 H           0.9940    0.0460    3.0162 H       1  UNL11       0.0655
     28 H           0.3566   -1.0152    3.4573 H       1  UNL11       0.0673
     29 H           1.1857   -1.3226    5.8303 H       1  UNL11       0.1423
     30 H          -0.0857   -1.4984    7.0578 H       1  UNL11       0.1423
     31 H          -2.1302   -0.0204    6.7610 H       1  UNL11       0.0659
     32 H          -3.2919    0.9903    2.7850 H       1  UNL11       0.0677
     33 H          -0.5433    0.0280   -0.9042 H       1  UNL11       0.0655
     34 H           1.7268    0.0861   -1.8136 H       1  UNL11       0.0637
     35 H          -4.7780    1.7043    3.5848 H       1  UNL11       0.3292
@<TRIPOS>BOND
     1     1     2    1
     2     1    22    1
     3     1    23    1
     4     1    24    1
     5     2     3    2
     6     2     4   am
     7     4     5    1
     8     4    25    1
     9     5     6   ar
    10     6     7   ar
    11     6    26    1
    12     7     8   ar
    13     7    27    1
    14     8     9    1
    15     8    20   ar
    16     9    10    1
    17    10    11   ar
    18    11    12   ar
    19    11    28    1
    20    12    13    1
    21    12    14   ar
    22    13    29    1
    23    13    30    1
    24    14    15   ar
    25    14    31    1
    26    15    16    1
    27    15    19   ar
    28    16    17    2
    29    16    18    1
    30    19    10   ar
    31    19    32    1
    32    20    21   ar
    33    20    33    1
    34    21     5   ar
    35    21    34    1
    36    18    35    1
@<TRIPOS>MOLECULE
*****
 35 36 0 0 0
SMALL
GASTEIGER

@<TRIPOS>ATOM
      1 C           6.5258    0.5307   -0.5675 C.3     1  UNL11       0.0125
      2 C           5.1910    0.5304    0.1366 C.2     1  UNL11       0.2141
      3 O           5.1942    0.9097    1.3195 O.2     1  UNL11      -0.2758
      4 N           4.0182    0.1269   -0.5042 N.am    1  UNL11      -0.2857
      5 C           2.7433    0.1012    0.0886 C.ar    1  UNL11       0.0336
      6 C           2.4674    0.0885    1.4330 C.ar    1  UNL11      -0.0370
      7 C           1.1769    0.0554    1.9503 C.ar    1  UNL11      -0.0176
      8 C           0.1030    0.0339    1.0983 C.ar    1  UNL11       0.1286
      9 O          -1.2096    0.0003    1.6054 O.3     1  UNL11      -0.4559
     10 C          -1.4817   -0.6051    2.8264 C.ar    1  UNL11       0.1323
     11 C          -0.5566   -0.6586    3.8462 C.ar    1  UNL11       0.0015
     12 C          -0.8021   -1.2554    5.0713 C.ar    1  UNL11       0.0302
     13 N           0.1852   -1.2863    6.0959 N.pl3   1  UNL11      -0.3578
     14 C          -2.0487   -1.8171    5.2494 C.ar    1  UNL11      -0.0107
     15 C          -3.0087   -1.7900    4.2609 C.ar    1  UNL11       0.1268
     16 N          -4.2815   -2.3770    4.4753 N.4     1  UNL11       0.0061
     17 O          -4.7556   -2.4231    5.6052 O.2     1  UNL11      -0.1300
     18 O          -4.9896   -2.8966    3.4200 O.2     1  UNL11      -0.3961
     19 C          -2.7190   -1.1772    3.0384 C.ar    1  UNL11       0.0108
     20 C           0.3308    0.0457   -0.2556 C.ar    1  UNL11      -0.0176
     21 C           1.6095    0.0783   -0.7481 C.ar    1  UNL11      -0.0370
     22 H           6.3753    0.7011   -1.6545 H       1  UNL11       0.0323
     23 H           7.1141    1.3919   -0.1879 H       1  UNL11       0.0323
     24 H           7.0051   -0.4222   -0.3348 H       1  UNL11       0.0323
     25 H           4.0793   -0.1854   -1.5165 H       1  UNL11       0.1548
     26 H           3.2539    0.1085    2.1641 H       1  UNL11       0.0637
     27 H           0.9940    0.0460    3.0162 H       1  UNL11       0.0655
     28 H           0.4152   -0.2024    3.6627 H       1  UNL11       0.0673
     29 H           0.9759   -0.6055    6.0992 H       1  UNL11       0.1423
     30 H           0.1372   -1.9793    6.8499 H       1  UNL11       0.1423
     31 H          -2.2940   -2.2959    6.1857 H       1  UNL11       0.0659
     32 H          -3.4454   -1.1388    2.2468 H       1  UNL11       0.0677
     33 H          -0.5433    0.0280   -0.9042 H       1  UNL11       0.0655
     34 H           1.7268    0.0861   -1.8136 H       1  UNL11       0.0637
     35 H          -4.6321   -2.8640    2.5545 H       1  UNL11       0.3292
@<TRIPOS>BOND
     1     1     2    1
     2     1    22    1
     3     1    23    1
     4     1    24    1
     5     2     3    2
     6     2     4   am
     7     4     5    1
     8     4    25    1
     9     5     6   ar
    10     6     7   ar
    11     6    26    1
    12     7     8   ar
    13     7    27    1
    14     8     9    1
    15     8    20   ar
    16     9    10    1
    17    10    11   ar
    18    11    12   ar
    19    11    28    1
    20    12    13    1
    21    12    14   ar
    22    13    29    1
    23    13    30    1
    24    14    15   ar
    25    14    31    1
    26    15    16    1
    27    15    19   ar
    28    16    17    2
    29    16    18    1
    30    19    10   ar
    31    19    32    1
    32    20    21   ar
    33    20    33    1
    34    21     5   ar
    35    21    34    1
    36    18    35    1
@<TRIPOS>MOLECULE
*****
 35 36 0 0 0
SMALL
GASTEIGER

@<TRIPOS>ATOM
      1 C           5.8700    1.0886   -1.9537 C.3     1  UNL11       0.0125
      2 C           4.4857    1.1307   -1.3544 C.2     1  UNL11       0.2141
      3 O           3.7845    2.1094   -1.6603 O.2     1  UNL11      -0.2758
      4 N           4.0182    0.1269   -0.5042 N.am    1  UNL11      -0.2857
      5 C           2.7433    0.1012    0.0886 C.ar    1  UNL11       0.0336
      6 C           2.4674    0.0885    1.4330 C.ar    1  UNL11      -0.0370
      7 C           1.1769    0.0554    1.9503 C.ar    1  UNL11      -0.0176
      8 C           0.1030    0.0339    1.0983 C.ar    1  UNL11       0.1286
      9 O          -1.2096    0.0003    1.6054 O.3     1  UNL11      -0.4559
     10 C          -1.4817   -0.6051    2.8264 C.ar    1  UNL11       0.1323
     11 C          -0.7385   -1.6602    3.3090 C.ar    1  UNL11       0.0015
     12 C          -0.9884   -2.2808    4.5214 C.ar    1  UNL11       0.0302
     13 N          -0.1929   -3.3685    4.9792 N.pl3   1  UNL11      -0.3578
     14 C          -2.0445   -1.7935    5.2620 C.ar    1  UNL11      -0.0107
     15 C          -2.8181   -0.7406    4.8237 C.ar    1  UNL11       0.1268
     16 N          -3.8976   -0.2627    5.6091 N.4     1  UNL11       0.0061
     17 O          -3.8572   -0.3539    6.8313 O.2     1  UNL11      -0.1300
     18 O          -4.9930    0.3045    5.0063 O.2     1  UNL11      -0.3961
     19 C          -2.5312   -0.1427    3.5932 C.ar    1  UNL11       0.0108
     20 C           0.3308    0.0457   -0.2556 C.ar    1  UNL11      -0.0176
     21 C           1.6095    0.0783   -0.7481 C.ar    1  UNL11      -0.0370
     22 H           6.1925    0.0331   -2.0766 H       1  UNL11       0.0323
     23 H           5.8167    1.5267   -2.9721 H       1  UNL11       0.0323
     24 H           6.5166    1.6713   -1.2946 H       1  UNL11       0.0323
     25 H           4.6638   -0.6851   -0.2811 H       1  UNL11       0.1548
     26 H           3.2539    0.1085    2.1641 H       1  UNL11       0.0637
     27 H           0.9940    0.0460    3.0162 H       1  UNL11       0.0655
     28 H           0.0863   -2.0132    2.6916 H       1  UNL11       0.0673
     29 H           0.7693   -3.5230    4.6066 H       1  UNL11       0.1423
     30 H          -0.5518   -4.0206    5.6843 H       1  UNL11       0.1423
     31 H          -2.2841   -2.2403    6.2155 H       1  UNL11       0.0659
     32 H          -3.1150    0.6804    3.2224 H       1  UNL11       0.0677
     33 H          -0.5433    0.0280   -0.9042 H       1  UNL11       0.0655
     34 H           1.7268    0.0861   -1.8136 H       1  UNL11       0.0637
     35 H          -5.0291    0.3767    4.0728 H       1  UNL11       0.3292
@<TRIPOS>BOND
     1     1     2    1
     2     1    22    1
     3     1    23    1
     4     1    24    1
     5     2     3    2
     6     2     4   am
     7     4     5    1
     8     4    25    1
     9     5     6   ar
    10     6     7   ar
    11     6    26    1
    12     7     8   ar
    13     7    27    1
    14     8     9    1
    15     8    20   ar
    16     9    10    1
    17    10    11   ar
    18    11    12   ar
    19    11    28    1
    20    12    13    1
    21    12    14   ar
    22    13    29    1
    23    13    30    1
    24    14    15   ar
    25    14    31    1
    26    15    16    1
    27    15    19   ar
    28    16    17    2
    29    16    18    1
    30    19    10   ar
    31    19    32    1
    32    20    21   ar
    33    20    33    1
    34    21     5   ar
    35    21    34    1
    36    18    35    1
@<TRIPOS>MOLECULE
*****
 35 36 0 0 0
SMALL
GASTEIGER

@<TRIPOS>ATOM
      1 C           5.8700    1.0886   -1.9537 C.3     1  UNL11       0.0125
      2 C           4.4857    1.1307   -1.3544 C.2     1  UNL11       0.2141
      3 O           3.7845    2.1094   -1.6603 O.2     1  UNL11      -0.2758
      4 N           4.0182    0.1269   -0.5042 N.am    1  UNL11      -0.2857
      5 C           2.7433    0.1012    0.0886 C.ar    1  UNL11       0.0336
      6 C           2.4674    0.0885    1.4330 C.ar    1  UNL11      -0.0370
      7 C           1.1769    0.0554    1.9503 C.ar    1  UNL11      -0.0176
      8 C           0.1030    0.0339    1.0983 C.ar    1  UNL11       0.1286
      9 O          -1.2096    0.0003    1.6054 O.3     1  UNL11      -0.4559
     10 C          -1.4817   -0.6051    2.8264 C.ar    1  UNL11       0.1323
     11 C          -2.5050   -0.1839    3.6474 C.ar    1  UNL11       0.0015
     12 C          -2.7969   -0.7692    4.8679 C.ar    1  UNL11       0.0302
     13 N          -3.8650   -0.2995    5.6827 N.pl3   1  UNL11      -0.3578
     14 C          -2.0028   -1.8282    5.2541 C.ar    1  UNL11      -0.0107
     15 C          -0.9672   -2.2874    4.4692 C.ar    1  UNL11       0.1268
     16 N          -0.1686   -3.3789    4.8949 N.4     1  UNL11       0.0061
     17 O           1.0071   -3.4512    4.5541 O.2     1  UNL11      -0.1300
     18 O          -0.7065   -4.3601    5.6905 O.2     1  UNL11      -0.3961
     19 C          -0.7067   -1.6674    3.2438 C.ar    1  UNL11       0.0108
     20 C           0.3308    0.0457   -0.2556 C.ar    1  UNL11      -0.0176
     21 C           1.6095    0.0783   -0.7481 C.ar    1  UNL11      -0.0370
     22 H           6.1925    0.0331   -2.0766 H       1  UNL11       0.0323
     23 H           5.8167    1.5267   -2.9721 H       1  UNL11       0.0323
     24 H           6.5166    1.6713   -1.2946 H       1  UNL11       0.0323
     25 H           4.6638   -0.6851   -0.2811 H       1  UNL11       0.1548
     26 H           3.2539    0.1085    2.1641 H       1  UNL11       0.0637
     27 H           0.9940    0.0460    3.0162 H       1  UNL11       0.0655
     28 H          -3.1072    0.6558    3.3033 H       1  UNL11       0.0673
     29 H          -4.6479    0.2553    5.2728 H       1  UNL11       0.1423
     30 H          -3.8842   -0.4979    6.6883 H       1  UNL11       0.1423
     31 H          -2.1860   -2.3220    6.1969 H       1  UNL11       0.0659
     32 H           0.0933   -2.0010    2.6079 H       1  UNL11       0.0677
     33 H          -0.5433    0.0280   -0.9042 H       1  UNL11       0.0655
     34 H           1.7268    0.0861   -1.8136 H       1  UNL11       0.0637
     35 H          -1.6043   -4.3099    5.9540 H       1  UNL11       0.3292
@<TRIPOS>BOND
     1     1     2    1
     2     1    22    1
     3     1    23    1
     4     1    24    1
     5     2     3    2
     6     2     4   am
     7     4     5    1
     8     4    25    1
     9     5     6   ar
    10     6     7   ar
    11     6    26    1
    12     7     8   ar
    13     7    27    1
    14     8     9    1
    15     8    20   ar
    16     9    10    1
    17    10    11   ar
    18    11    12   ar
    19    11    28    1
    20    12    13    1
    21    12    14   ar
    22    13    29    1
    23    13    30    1
    24    14    15   ar
    25    14    31    1
    26    15    16    1
    27    15    19   ar
    28    16    17    2
    29    16    18    1
    30    19    10   ar
    31    19    32    1
    32    20    21   ar
    33    20    33    1
    34    21     5   ar
    35    21    34    1
    36    18    35    1
@<TRIPOS>MOLECULE
*****
 35 36 0 0 0
SMALL
GASTEIGER

@<TRIPOS>ATOM
      1 C           5.2001    0.9767    1.5782 C.3     1  UNL11       0.0125
      2 C           5.1910    0.5304    0.1366 C.2     1  UNL11       0.2141
      3 O           6.2867    0.5421   -0.4486 O.2     1  UNL11      -0.2758
      4 N           4.0182    0.1269   -0.5042 N.am    1  UNL11      -0.2857
      5 C           2.7433    0.1012    0.0886 C.ar    1  UNL11       0.0336
      6 C           2.4674    0.0885    1.4330 C.ar    1  UNL11      -0.0370
      7 C           1.1769    0.0554    1.9503 C.ar    1  UNL11      -0.0176
      8 C           0.1030    0.0339    1.0983 C.ar    1  UNL11       0.1286
      9 O          -1.2096    0.0003    1.6054 O.3     1  UNL11      -0.4559
     10 C          -2.2557    0.5846    0.9015 C.ar    1  UNL11       0.1323
     11 C          -3.5472    0.1092    0.9689 C.ar    1  UNL11       0.0015
     12 C          -4.6069    0.6725    0.2782 C.ar    1  UNL11       0.0302
     13 N          -5.9255    0.1464    0.3788 N.pl3   1  UNL11      -0.3578
     14 C          -4.3220    1.7669   -0.5107 C.ar    1  UNL11      -0.0107
     15 C          -3.0472    2.2807   -0.6120 C.ar    1  UNL11       0.1268
     16 N          -2.7867    3.4076   -1.4322 N.4     1  UNL11       0.0061
     17 O          -1.8885    4.1887   -1.1377 O.2     1  UNL11      -0.1300
     18 O          -3.5378    3.6303   -2.5597 O.2     1  UNL11      -0.3961
     19 C          -2.0060    1.6812    0.1025 C.ar    1  UNL11       0.0108
     20 C           0.3308    0.0457   -0.2556 C.ar    1  UNL11      -0.0176
     21 C           1.6095    0.0783   -0.7481 C.ar    1  UNL11      -0.0370
     22 H           4.3874    0.4629    2.1339 H       1  UNL11       0.0323
     23 H           6.1567    0.6464    2.0338 H       1  UNL11       0.0323
     24 H           5.1078    2.0645    1.5718 H       1  UNL11       0.0323
     25 H           4.0793   -0.1854   -1.5165 H       1  UNL11       0.1548
     26 H           3.2539    0.1085    2.1641 H       1  UNL11       0.0637
     27 H           0.9940    0.0460    3.0162 H       1  UNL11       0.0655
     28 H          -3.7275   -0.7570    1.6040 H       1  UNL11       0.0673
     29 H          -6.2065   -0.4436    1.1922 H       1  UNL11       0.1423
     30 H          -6.6236    0.3380   -0.3471 H       1  UNL11       0.1423
     31 H          -5.1109    2.2457   -1.0715 H       1  UNL11       0.0659
     32 H          -1.0004    2.0572    0.0456 H       1  UNL11       0.0677
     33 H          -0.5433    0.0280   -0.9042 H       1  UNL11       0.0655
     34 H           1.7268    0.0861   -1.8136 H       1  UNL11       0.0637
     35 H          -4.2254    3.0367   -2.7894 H       1  UNL11       0.3292
@<TRIPOS>BOND
     1     1     2    1
     2     1    22    1
     3     1    23    1
     4     1    24    1
     5     2     3    2
     6     2     4   am
     7     4     5    1
     8     4    25    1
     9     5     6   ar
    10     6     7   ar
    11     6    26    1
    12     7     8   ar
    13     7    27    1
    14     8     9    1
    15     8    20   ar
    16     9    10    1
    17    10    11   ar
    18    11    12   ar
    19    11    28    1
    20    12    13    1
    21    12    14   ar
    22    13    29    1
    23    13    30    1
    24    14    15   ar
    25    14    31    1
    26    15    16    1
    27    15    19   ar
    28    16    17    2
    29    16    18    1
    30    19    10   ar
    31    19    32    1
    32    20    21   ar
    33    20    33    1
    34    21     5   ar
    35    21    34    1
    36    18    35    1
@<TRIPOS>MOLECULE
*****
 35 36 0 0 0
SMALL
GASTEIGER

@<TRIPOS>ATOM
      1 C           3.7064   -2.0563   -1.7657 C.3     1  UNL11       0.0125
      2 C           4.5202   -0.8499   -1.3660 C.2     1  UNL11       0.2141
      3 O           5.6629   -0.7745   -1.8474 O.2     1  UNL11      -0.2758
      4 N           4.0182    0.1269   -0.5042 N.am    1  UNL11      -0.2857
      5 C           2.7433    0.1012    0.0886 C.ar    1  UNL11       0.0336
      6 C           2.4674    0.0885    1.4330 C.ar    1  UNL11      -0.0370
      7 C           1.1769    0.0554    1.9503 C.ar    1  UNL11      -0.0176
      8 C           0.1030    0.0339    1.0983 C.ar    1  UNL11       0.1286
      9 O          -1.2096    0.0003    1.6054 O.3     1  UNL11      -0.4559
     10 C          -1.4390   -0.0133    2.9760 C.ar    1  UNL11       0.1323
     11 C          -0.5505   -0.5737    3.8676 C.ar    1  UNL11       0.0015
     12 C          -0.7550   -0.6005    5.2369 C.ar    1  UNL11       0.0302
     13 N           0.1920   -1.1911    6.1200 N.pl3   1  UNL11      -0.3578
     14 C          -1.9198   -0.0274    5.7018 C.ar    1  UNL11      -0.0107
     15 C          -2.8403    0.5460    4.8514 C.ar    1  UNL11       0.1268
     16 N          -4.0290    1.1273    5.3611 N.4     1  UNL11       0.0061
     17 O          -4.8478    1.6249    4.5959 O.2     1  UNL11      -0.1300
     18 O          -4.2697    1.1361    6.7128 O.2     1  UNL11      -0.3961
     19 C          -2.5945    0.5514    3.4754 C.ar    1  UNL11       0.0108
     20 C           0.3308    0.0457   -0.2556 C.ar    1  UNL11      -0.0176
     21 C           1.6095    0.0783   -0.7481 C.ar    1  UNL11      -0.0370
     22 H           2.6260   -1.7999   -1.7524 H       1  UNL11       0.0323
     23 H           3.9614   -2.3100   -2.8157 H       1  UNL11       0.0323
     24 H           3.9753   -2.8600   -1.0773 H       1  UNL11       0.0323
     25 H           4.6363    0.9569   -0.2692 H       1  UNL11       0.1548
     26 H           3.2539    0.1085    2.1641 H       1  UNL11       0.0637
     27 H           0.9940    0.0460    3.0162 H       1  UNL11       0.0655
     28 H           0.3566   -1.0152    3.4573 H       1  UNL11       0.0673
     29 H           1.1857   -1.3226    5.8303 H       1  UNL11       0.1423
     30 H          -0.0857   -1.4984    7.0578 H       1  UNL11       0.1423
     31 H          -2.1302   -0.0204    6.7610 H       1  UNL11       0.0659
     32 H          -3.2919    0.9903    2.7850 H       1  UNL11       0.0677
     33 H          -0.5433    0.0280   -0.9042 H       1  UNL11       0.0655
     34 H           1.7268    0.0861   -1.8136 H       1  UNL11       0.0637
     35 H          -3.6473    0.7572    7.3019 H       1  UNL11       0.3292
@<TRIPOS>BOND
     1     1     2    1
     2     1    22    1
     3     1    23    1
     4     1    24    1
     5     2     3    2
     6     2     4   am
     7     4     5    1
     8     4    25    1
     9     5     6   ar
    10     6     7   ar
    11     6    26    1
    12     7     8   ar
    13     7    27    1
    14     8     9    1
    15     8    20   ar
    16     9    10    1
    17    10    11   ar
    18    11    12   ar
    19    11    28    1
    20    12    13    1
    21    12    14   ar
    22    13    29    1
    23    13    30    1
    24    14    15   ar
    25    14    31    1
    26    15    16    1
    27    15    19   ar
    28    16    17    2
    29    16    18    1
    30    19    10   ar
    31    19    32    1
    32    20    21   ar
    33    20    33    1
    34    21     5   ar
    35    21    34    1
    36    18    35    1
@<TRIPOS>MOLECULE
*****
 35 36 0 0 0
SMALL
GASTEIGER

@<TRIPOS>ATOM
      1 C           6.5258    0.5307   -0.5675 C.3     1  UNL11       0.0125
      2 C           5.1910    0.5304    0.1366 C.2     1  UNL11       0.2141
      3 O           5.1942    0.9097    1.3195 O.2     1  UNL11      -0.2758
      4 N           4.0182    0.1269   -0.5042 N.am    1  UNL11      -0.2857
      5 C           2.7433    0.1012    0.0886 C.ar    1  UNL11       0.0336
      6 C           2.4674    0.0885    1.4330 C.ar    1  UNL11      -0.0370
      7 C           1.1769    0.0554    1.9503 C.ar    1  UNL11      -0.0176
      8 C           0.1030    0.0339    1.0983 C.ar    1  UNL11       0.1286
      9 O          -1.2096    0.0003    1.6054 O.3     1  UNL11      -0.4559
     10 C          -2.2276   -0.6236    0.8943 C.ar    1  UNL11       0.1323
     11 C          -2.2275   -0.7000   -0.4815 C.ar    1  UNL11       0.0015
     12 C          -3.2288   -1.3153   -1.2137 C.ar    1  UNL11       0.0302
     13 N          -3.1858   -1.3697   -2.6352 N.pl3   1  UNL11      -0.3578
     14 C          -4.2680   -1.8720   -0.4986 C.ar    1  UNL11      -0.0107
     15 C          -4.3148   -1.8224    0.8779 C.ar    1  UNL11       0.1268
     16 N          -5.3977   -2.4046    1.5842 N.4     1  UNL11       0.0061
     17 O          -6.3051   -2.9578    0.9725 O.2     1  UNL11      -0.1300
     18 O          -5.4363   -2.3525    2.9557 O.2     1  UNL11      -0.3961
     19 C          -3.2828   -1.1911    1.5783 C.ar    1  UNL11       0.0108
     20 C           0.3308    0.0457   -0.2556 C.ar    1  UNL11      -0.0176
     21 C           1.6095    0.0783   -0.7481 C.ar    1  UNL11      -0.0370
     22 H           6.3753    0.7011   -1.6545 H       1  UNL11       0.0323
     23 H           7.1141    1.3919   -0.1879 H       1  UNL11       0.0323
     24 H           7.0051   -0.4222   -0.3348 H       1  UNL11       0.0323
     25 H           4.0793   -0.1854   -1.5165 H       1  UNL11       0.1548
     26 H           3.2539    0.1085    2.1641 H       1  UNL11       0.0637
     27 H           0.9940    0.0460    3.0162 H       1  UNL11       0.0655
     28 H          -1.3875   -0.2470   -1.0062 H       1  UNL11       0.0673
     29 H          -2.2850   -1.2549   -3.1491 H       1  UNL11       0.1423
     30 H          -4.0405   -1.5227   -3.1804 H       1  UNL11       0.1423
     31 H          -5.0758   -2.3645   -1.0190 H       1  UNL11       0.0659
     32 H          -3.2890   -1.1350    2.6518 H       1  UNL11       0.0677
     33 H          -0.5433    0.0280   -0.9042 H       1  UNL11       0.0655
     34 H           1.7268    0.0861   -1.8136 H       1  UNL11       0.0637
     35 H          -4.7455   -1.9311    3.4281 H       1  UNL11       0.3292
@<TRIPOS>BOND
     1     1     2    1
     2     1    22    1
     3     1    23    1
     4     1    24    1
     5     2     3    2
     6     2     4   am
     7     4     5    1
     8     4    25    1
     9     5     6   ar
    10     6     7   ar
    11     6    26    1
    12     7     8   ar
    13     7    27    1
    14     8     9    1
    15     8    20   ar
    16     9    10    1
    17    10    11   ar
    18    11    12   ar
    19    11    28    1
    20    12    13    1
    21    12    14   ar
    22    13    29    1
    23    13    30    1
    24    14    15   ar
    25    14    31    1
    26    15    16    1
    27    15    19   ar
    28    16    17    2
    29    16    18    1
    30    19    10   ar
    31    19    32    1
    32    20    21   ar
    33    20    33    1
    34    21     5   ar
    35    21    34    1
    36    18    35    1
@<TRIPOS>MOLECULE
*****
 35 36 0 0 0
SMALL
GASTEIGER

@<TRIPOS>ATOM
      1 C           4.1639    2.6624   -0.5772 C.3     1  UNL11       0.0125
      2 C           4.7211    1.2850   -0.8414 C.2     1  UNL11       0.2141
      3 O           5.8414    1.2392   -1.3760 O.2     1  UNL11      -0.2758
      4 N           4.0182    0.1269   -0.5042 N.am    1  UNL11      -0.2857
      5 C           2.7433    0.1012    0.0886 C.ar    1  UNL11       0.0336
      6 C           2.4674    0.0885    1.4330 C.ar    1  UNL11      -0.0370
      7 C           1.1769    0.0554    1.9503 C.ar    1  UNL11      -0.0176
      8 C           0.1030    0.0339    1.0983 C.ar    1  UNL11       0.1286
      9 O          -1.2096    0.0003    1.6054 O.3     1  UNL11      -0.4559
     10 C          -2.2276   -0.6236    0.8943 C.ar    1  UNL11       0.1323
     11 C          -3.5398   -0.2095    0.9670 C.ar    1  UNL11       0.0015
     12 C          -4.5724   -0.8133    0.2694 C.ar    1  UNL11       0.0302
     13 N          -5.9139   -0.3503    0.3760 N.pl3   1  UNL11      -0.3578
     14 C          -4.2370   -1.8836   -0.5326 C.ar    1  UNL11      -0.0107
     15 C          -2.9397   -2.3363   -0.6398 C.ar    1  UNL11       0.1268
     16 N          -2.6274   -3.4399   -1.4734 N.4     1  UNL11       0.0061
     17 O          -1.4721   -3.8430   -1.5536 O.2     1  UNL11      -0.1300
     18 O          -3.6156   -4.0630   -2.1946 O.2     1  UNL11      -0.3961
     19 C          -1.9273   -1.6977    0.0822 C.ar    1  UNL11       0.0108
     20 C           0.3308    0.0457   -0.2556 C.ar    1  UNL11      -0.0176
     21 C           1.6095    0.0783   -0.7481 C.ar    1  UNL11      -0.0370
     22 H           3.4950    2.6317    0.3087 H       1  UNL11       0.0323
     23 H           5.0103    3.3308   -0.3152 H       1  UNL11       0.0323
     24 H           3.6638    2.9811   -1.4940 H       1  UNL11       0.0323
     25 H           4.4686   -0.8124   -0.7066 H       1  UNL11       0.1548
     26 H           3.2539    0.1085    2.1641 H       1  UNL11       0.0637
     27 H           0.9940    0.0460    3.0162 H       1  UNL11       0.0655
     28 H          -3.7600    0.6396    1.6124 H       1  UNL11       0.0673
     29 H          -6.1222    0.6194    0.6998 H       1  UNL11       0.1423
     30 H          -6.7008   -0.9624    0.1363 H       1  UNL11       0.1423
     31 H          -5.0030   -2.3919   -1.0992 H       1  UNL11       0.0659
     32 H          -0.9054   -2.0257    0.0209 H       1  UNL11       0.0677
     33 H          -0.5433    0.0280   -0.9042 H       1  UNL11       0.0655
     34 H           1.7268    0.0861   -1.8136 H       1  UNL11       0.0637
     35 H          -4.5001   -3.7591   -2.1370 H       1  UNL11       0.3292
@<TRIPOS>BOND
     1     1     2    1
     2     1    22    1
     3     1    23    1
     4     1    24    1
     5     2     3    2
     6     2     4   am
     7     4     5    1
     8     4    25    1
     9     5     6   ar
    10     6     7   ar
    11     6    26    1
    12     7     8   ar
    13     7    27    1
    14     8     9    1
    15     8    20   ar
    16     9    10    1
    17    10    11   ar
    18    11    12   ar
    19    11    28    1
    20    12    13    1
    21    12    14   ar
    22    13    29    1
    23    13    30    1
    24    14    15   ar
    25    14    31    1
    26    15    16    1
    27    15    19   ar
    28    16    17    2
    29    16    18    1
    30    19    10   ar
    31    19    32    1
    32    20    21   ar
    33    20    33    1
    34    21     5   ar
    35    21    34    1
    36    18    35    1
@<TRIPOS>MOLECULE
*****
 35 36 0 0 0
SMALL
GASTEIGER

@<TRIPOS>ATOM
      1 C           6.0889    1.2321   -1.4768 C.3     1  UNL11       0.0125
      2 C           4.7211    1.2850   -0.8414 C.2     1  UNL11       0.2141
      3 O           4.2550    2.4178   -0.6349 O.2     1  UNL11      -0.2758
      4 N           4.0182    0.1269   -0.5042 N.am    1  UNL11      -0.2857
      5 C           2.7433    0.1012    0.0886 C.ar    1  UNL11       0.0336
      6 C           2.4674    0.0885    1.4330 C.ar    1  UNL11      -0.0370
      7 C           1.1769    0.0554    1.9503 C.ar    1  UNL11      -0.0176
      8 C           0.1030    0.0339    1.0983 C.ar    1  UNL11       0.1286
      9 O          -1.2096    0.0003    1.6054 O.3     1  UNL11      -0.4559
     10 C          -1.5092    0.5776    2.8335 C.ar    1  UNL11       0.1323
     11 C          -2.7449    1.1195    3.1126 C.ar    1  UNL11       0.0015
     12 C          -3.0690    1.7003    4.3271 C.ar    1  UNL11       0.0302
     13 N          -4.3601    2.2477    4.5701 N.pl3   1  UNL11      -0.3578
     14 C          -2.0805    1.7220    5.2882 C.ar    1  UNL11      -0.0107
     15 C          -0.8286    1.1934    5.0587 C.ar    1  UNL11       0.1268
     16 N           0.1666    1.2313    6.0680 N.4     1  UNL11       0.0061
     17 O           0.1727    2.1390    6.8924 O.2     1  UNL11      -0.1300
     18 O           1.1279    0.2530    6.1280 O.2     1  UNL11      -0.3961
     19 C          -0.5433    0.6163    3.8179 C.ar    1  UNL11       0.0108
     20 C           0.3308    0.0457   -0.2556 C.ar    1  UNL11      -0.0176
     21 C           1.6095    0.0783   -0.7481 C.ar    1  UNL11      -0.0370
     22 H           6.1865    0.3034   -2.0777 H       1  UNL11       0.0323
     23 H           6.1709    2.0816   -2.1864 H       1  UNL11       0.0323
     24 H           6.8161    1.3089   -0.6661 H       1  UNL11       0.0323
     25 H           4.4686   -0.8124   -0.7066 H       1  UNL11       0.1548
     26 H           3.2539    0.1085    2.1641 H       1  UNL11       0.0637
     27 H           0.9940    0.0460    3.0162 H       1  UNL11       0.0655
     28 H          -3.4961    1.0810    2.3250 H       1  UNL11       0.0673
     29 H          -5.1830    1.9532    4.0003 H       1  UNL11       0.1423
     30 H          -4.5047    2.9422    5.3102 H       1  UNL11       0.1423
     31 H          -2.2788    2.1628    6.2538 H       1  UNL11       0.0659
     32 H           0.4229    0.1952    3.6065 H       1  UNL11       0.0677
     33 H          -0.5433    0.0280   -0.9042 H       1  UNL11       0.0655
     34 H           1.7268    0.0861   -1.8136 H       1  UNL11       0.0637
     35 H           1.1280   -0.4429    5.5005 H       1  UNL11       0.3292
@<TRIPOS>BOND
     1     1     2    1
     2     1    22    1
     3     1    23    1
     4     1    24    1
     5     2     3    2
     6     2     4   am
     7     4     5    1
     8     4    25    1
     9     5     6   ar
    10     6     7   ar
    11     6    26    1
    12     7     8   ar
    13     7    27    1
    14     8     9    1
    15     8    20   ar
    16     9    10    1
    17    10    11   ar
    18    11    12   ar
    19    11    28    1
    20    12    13    1
    21    12    14   ar
    22    13    29    1
    23    13    30    1
    24    14    15   ar
    25    14    31    1
    26    15    16    1
    27    15    19   ar
    28    16    17    2
    29    16    18    1
    30    19    10   ar
    31    19    32    1
    32    20    21   ar
    33    20    33    1
    34    21     5   ar
    35    21    34    1
    36    18    35    1
@<TRIPOS>MOLECULE
*****
 35 36 0 0 0
SMALL
GASTEIGER

@<TRIPOS>ATOM
      1 C           6.5585    0.1714   -0.5128 C.3     1  UNL11       0.0125
      2 C           5.2262    0.1438    0.1954 C.2     1  UNL11       0.2141
      3 O           5.2644    0.1372    1.4370 O.2     1  UNL11      -0.2758
      4 N           4.0182    0.1269   -0.5042 N.am    1  UNL11      -0.2857
      5 C           2.7433    0.1012    0.0886 C.ar    1  UNL11       0.0336
      6 C           2.4674    0.0885    1.4330 C.ar    1  UNL11      -0.0370
      7 C           1.1769    0.0554    1.9503 C.ar    1  UNL11      -0.0176
      8 C           0.1030    0.0339    1.0983 C.ar    1  UNL11       0.1286
      9 O          -1.2096    0.0003    1.6054 O.3     1  UNL11      -0.4559
     10 C          -2.2276   -0.6236    0.8943 C.ar    1  UNL11       0.1323
     11 C          -3.3021   -1.2223    1.5152 C.ar    1  UNL11       0.0015
     12 C          -4.3289   -1.8503    0.8306 C.ar    1  UNL11       0.0302
     13 N          -5.4197   -2.4557    1.5155 N.pl3   1  UNL11      -0.3578
     14 C          -4.2426   -1.8598   -0.5456 C.ar    1  UNL11      -0.0107
     15 C          -3.1888   -1.2751   -1.2141 C.ar    1  UNL11       0.1268
     16 N          -3.1291   -1.3021   -2.6306 N.4     1  UNL11       0.0061
     17 O          -4.0181   -1.8496   -3.2737 O.2     1  UNL11      -0.1300
     18 O          -2.0768   -0.7159   -3.2894 O.2     1  UNL11      -0.3961
     19 C          -2.1728   -0.6517   -0.4840 C.ar    1  UNL11       0.0108
     20 C           0.3308    0.0457   -0.2556 C.ar    1  UNL11      -0.0176
     21 C           1.6095    0.0783   -0.7481 C.ar    1  UNL11      -0.0370
     22 H           6.4517    0.6867   -1.4907 H       1  UNL11       0.0323
     23 H           7.2580    0.7820    0.0952 H       1  UNL11       0.0323
     24 H           6.8922   -0.8648   -0.5968 H       1  UNL11       0.0323
     25 H           4.0504    0.1351   -1.5648 H       1  UNL11       0.1548
     26 H           3.2539    0.1085    2.1641 H       1  UNL11       0.0637
     27 H           0.9940    0.0460    3.0162 H       1  UNL11       0.0655
     28 H          -3.3303   -1.1913    2.6034 H       1  UNL11       0.0673
     29 H          -5.6599   -2.1782    2.4922 H       1  UNL11       0.1423
     30 H          -5.9897   -3.1764    1.0607 H       1  UNL11       0.1423
     31 H          -5.0161   -2.3358   -1.1297 H       1  UNL11       0.0659
     32 H          -1.3372   -0.1863   -0.9746 H       1  UNL11       0.0677
     33 H          -0.5433    0.0280   -0.9042 H       1  UNL11       0.0655
     34 H           1.7268    0.0861   -1.8136 H       1  UNL11       0.0637
     35 H          -1.3948   -0.2962   -2.8029 H       1  UNL11       0.3292
@<TRIPOS>BOND
     1     1     2    1
     2     1    22    1
     3     1    23    1
     4     1    24    1
     5     2     3    2
     6     2     4   am
     7     4     5    1
     8     4    25    1
     9     5     6   ar
    10     6     7   ar
    11     6    26    1
    12     7     8   ar
    13     7    27    1
    14     8     9    1
    15     8    20   ar
    16     9    10    1
    17    10    11   ar
    18    11    12   ar
    19    11    28    1
    20    12    13    1
    21    12    14   ar
    22    13    29    1
    23    13    30    1
    24    14    15   ar
    25    14    31    1
    26    15    16    1
    27    15    19   ar
    28    16    17    2
    29    16    18    1
    30    19    10   ar
    31    19    32    1
    32    20    21   ar
    33    20    33    1
    34    21     5   ar
    35    21    34    1
    36    18    35    1
@<TRIPOS>MOLECULE
*****
 35 36 0 0 0
SMALL
GASTEIGER

@<TRIPOS>ATOM
      1 C           4.1639    2.6624   -0.5772 C.3     1  UNL11       0.0125
      2 C           4.7211    1.2850   -0.8414 C.2     1  UNL11       0.2141
      3 O           5.8414    1.2392   -1.3760 O.2     1  UNL11      -0.2758
      4 N           4.0182    0.1269   -0.5042 N.am    1  UNL11      -0.2857
      5 C           2.7433    0.1012    0.0886 C.ar    1  UNL11       0.0336
      6 C           2.4674    0.0885    1.4330 C.ar    1  UNL11      -0.0370
      7 C           1.1769    0.0554    1.9503 C.ar    1  UNL11      -0.0176
      8 C           0.1030    0.0339    1.0983 C.ar    1  UNL11       0.1286
      9 O          -1.2096    0.0003    1.6054 O.3     1  UNL11      -0.4559
     10 C          -2.2276   -0.6236    0.8943 C.ar    1  UNL11       0.1323
     11 C          -2.0121   -1.2319   -0.3231 C.ar    1  UNL11       0.0015
     12 C          -3.0083   -1.8599   -1.0516 C.ar    1  UNL11       0.0302
     13 N          -2.7381   -2.4755   -2.3060 N.pl3   1  UNL11      -0.3578
     14 C          -4.2730   -1.8595   -0.5023 C.ar    1  UNL11      -0.0107
     15 C          -4.5404   -1.2651    0.7120 C.ar    1  UNL11       0.1268
     16 N          -5.8522   -1.2817    1.2499 N.4     1  UNL11       0.0061
     17 O          -6.2354   -0.3632    1.9662 O.2     1  UNL11      -0.1300
     18 O          -6.7001   -2.3253    0.9721 O.2     1  UNL11      -0.3961
     19 C          -3.5052   -0.6417    1.4147 C.ar    1  UNL11       0.0108
     20 C           0.3308    0.0457   -0.2556 C.ar    1  UNL11      -0.0176
     21 C           1.6095    0.0783   -0.7481 C.ar    1  UNL11      -0.0370
     22 H           3.4950    2.6317    0.3087 H       1  UNL11       0.0323
     23 H           5.0103    3.3308   -0.3152 H       1  UNL11       0.0323
     24 H           3.6638    2.9811   -1.4940 H       1  UNL11       0.0323
     25 H           4.4686   -0.8124   -0.7066 H       1  UNL11       0.1548
     26 H           3.2539    0.1085    2.1641 H       1  UNL11       0.0637
     27 H           0.9940    0.0460    3.0162 H       1  UNL11       0.0655
     28 H          -0.9982   -1.2087   -0.7199 H       1  UNL11       0.0673
     29 H          -1.7691   -2.7636   -2.5642 H       1  UNL11       0.1423
     30 H          -3.4920   -2.6470   -2.9794 H       1  UNL11       0.1423
     31 H          -5.0877   -2.3351   -1.0278 H       1  UNL11       0.0659
     32 H          -3.6801   -0.1689    2.3641 H       1  UNL11       0.0677
     33 H          -0.5433    0.0280   -0.9042 H       1  UNL11       0.0655
     34 H           1.7268    0.0861   -1.8136 H       1  UNL11       0.0637
     35 H          -6.4124   -3.0298    0.4253 H       1  UNL11       0.3292
@<TRIPOS>BOND
     1     1     2    1
     2     1    22    1
     3     1    23    1
     4     1    24    1
     5     2     3    2
     6     2     4   am
     7     4     5    1
     8     4    25    1
     9     5     6   ar
    10     6     7   ar
    11     6    26    1
    12     7     8   ar
    13     7    27    1
    14     8     9    1
    15     8    20   ar
    16     9    10    1
    17    10    11   ar
    18    11    12   ar
    19    11    28    1
    20    12    13    1
    21    12    14   ar
    22    13    29    1
    23    13    30    1
    24    14    15   ar
    25    14    31    1
    26    15    16    1
    27    15    19   ar
    28    16    17    2
    29    16    18    1
    30    19    10   ar
    31    19    32    1
    32    20    21   ar
    33    20    33    1
    34    21     5   ar
    35    21    34    1
    36    18    35    1
