@<TRIPOS>MOLECULE
*****
 41 43 0 0 0
SMALL
GASTEIGER

@<TRIPOS>ATOM
      1 O           1.2386   -0.7698    0.3643 O.2     1  UNL11      -0.2743
      2 C           0.7290   -0.2184   -0.6751 C.2     1  UNL11       0.2296
      3 C          -0.6815    0.1710   -0.6006 C.3     1  UNL11       0.0363
      4 C          -1.2134   -0.2031    0.7799 C.3     1  UNL11       0.0595
      5 C          -0.4253    0.5407    1.7881 C.2     1  UNL11       0.2951
      6 N           0.2655   -0.1563    2.7032 N.2     1  UNL11      -0.0454
      7 C           1.0057    0.4702    3.6345 C.ar    1  UNL11       0.1903
      8 C           1.7141   -0.2320    4.5745 C.ar    1  UNL11      -0.0100
      9 C           2.4747    0.4038    5.5340 C.ar    1  UNL11      -0.0576
     10 C           2.5024    1.7954    5.5179 C.ar    1  UNL11      -0.0607
     11 C           1.7893    2.5241    4.5712 C.ar    1  UNL11      -0.0432
     12 C           1.0398    1.8594    3.6285 C.ar    1  UNL11       0.1121
     13 C           0.3118    2.5344    2.6667 C.2     1  UNL11       0.3368
     14 O           0.3653    3.7911    2.6890 O.2     1  UNL11      -0.2416
     15 N          -0.4280    1.8969    1.7369 N.am    1  UNL11      -0.1702
     16 N           1.5729   -0.0392   -1.7877 N.am    1  UNL11      -0.2341
     17 N           0.9974    0.5862   -2.9232 N.am    1  UNL11      -0.2304
     18 C          -0.4132    0.3998   -3.1402 C.2     1  UNL11       0.2601
     19 O          -1.0194   -0.3184   -2.2810 O.2     1  UNL11      -0.2687
     20 C          -1.1216    0.9886   -4.2641 C.ar    1  UNL11       0.0383
     21 C          -2.2161    0.3182   -4.7718 C.ar    1  UNL11      -0.0469
     22 C          -2.9454    0.8191   -5.8357 C.ar    1  UNL11      -0.0257
     23 C          -2.5801    2.0140   -6.4098 C.ar    1  UNL11       0.1234
     24 F          -3.2680    2.5258   -7.4397 F       1  UNL11      -0.2055
     25 C          -1.4935    2.6997   -5.9214 C.ar    1  UNL11      -0.0257
     26 C          -0.7874    2.1796   -4.8651 C.ar    1  UNL11      -0.0469
     27 H          -1.2493   -0.4225   -1.3501 H       1  UNL11       0.0364
     28 H          -0.8654    1.2394   -0.8197 H       1  UNL11       0.0364
     29 H          -2.2844    0.1073    0.8409 H       1  UNL11       0.0392
     30 H          -1.2047   -1.2855    0.9639 H       1  UNL11       0.0392
     31 H           1.6809   -1.3209    4.5717 H       1  UNL11       0.0661
     32 H           3.0466   -0.1108    6.2886 H       1  UNL11       0.0619
     33 H           3.0966    2.2911    6.2627 H       1  UNL11       0.0618
     34 H           1.8079    3.6121    4.5515 H       1  UNL11       0.0627
     35 H          -0.9823    2.3977    1.0065 H       1  UNL11       0.3013
     36 H           2.5509   -0.3531   -1.7491 H       1  UNL11       0.1728
     37 H           1.5263    1.1629   -3.5958 H       1  UNL11       0.1731
     38 H          -2.5098   -0.6248   -4.3256 H       1  UNL11       0.0626
     39 H          -3.8111    0.3047   -6.2487 H       1  UNL11       0.0646
     40 H          -1.1623    3.6524   -6.3410 H       1  UNL11       0.0646
     41 H           0.0658    2.7361   -4.4974 H       1  UNL11       0.0626
@<TRIPOS>BOND
     1     1     2    2
     2     2     3    1
     3     2    16   am
     4     3     4    1
     5     3    27    1
     6     3    28    1
     7     4     5    1
     8     4    29    1
     9     4    30    1
    10     5     6    2
    11     6     7    1
    12     7     8   ar
    13     8     9   ar
    14     8    31    1
    15     9    10   ar
    16     9    32    1
    17    10    11   ar
    18    10    33    1
    19    11    12   ar
    20    11    34    1
    21    12    13    1
    22    12     7   ar
    23    13    14    2
    24    13    15   am
    25    15     5    1
    26    15    35    1
    27    16    17    1
    28    16    36    1
    29    17    18   am
    30    17    37    1
    31    18    19    2
    32    18    20    1
    33    20    21   ar
    34    21    22   ar
    35    21    38    1
    36    22    23   ar
    37    22    39    1
    38    23    24    1
    39    23    25   ar
    40    25    26   ar
    41    25    40    1
    42    26    20   ar
    43    26    41    1
@<TRIPOS>MOLECULE
*****
 41 43 0 0 0
SMALL
GASTEIGER

@<TRIPOS>ATOM
      1 O           1.5961    0.6552   -0.3160 O.2     1  UNL11      -0.2743
      2 C           0.7290   -0.2184   -0.6751 C.2     1  UNL11       0.2296
      3 C          -0.6815    0.1710   -0.6006 C.3     1  UNL11       0.0363
      4 C          -1.2134   -0.2031    0.7799 C.3     1  UNL11       0.0595
      5 C          -2.6421    0.1795    0.8361 C.2     1  UNL11       0.2951
      6 N          -3.3212   -0.0439    1.9716 N.2     1  UNL11      -0.0454
      7 C          -4.6181    0.2945    2.0788 C.ar    1  UNL11       0.1903
      8 C          -5.3214    0.0696    3.2335 C.ar    1  UNL11      -0.0100
      9 C          -6.6525    0.4128    3.3506 C.ar    1  UNL11      -0.0576
     10 C          -7.2665    1.0019    2.2490 C.ar    1  UNL11      -0.0607
     11 C          -6.5678    1.2371    1.0690 C.ar    1  UNL11      -0.0432
     12 C          -5.2415    0.8823    0.9848 C.ar    1  UNL11       0.1121
     13 C          -4.5015    1.0924   -0.1637 C.2     1  UNL11       0.3368
     14 O          -5.0960    1.6271   -1.1349 O.2     1  UNL11      -0.2416
     15 N          -3.2012    0.7492   -0.2616 N.am    1  UNL11      -0.1702
     16 N           1.2146   -1.4673   -1.1071 N.am    1  UNL11      -0.2341
     17 N           2.6231   -1.6340   -1.1013 N.am    1  UNL11      -0.2304
     18 C           3.1910   -2.5188   -2.0842 C.2     1  UNL11       0.2601
     19 O           4.4562   -2.6580   -2.0442 O.2     1  UNL11      -0.2687
     20 C           2.3867   -3.2215   -3.0696 C.ar    1  UNL11       0.0383
     21 C           3.0270   -4.0595   -3.9601 C.ar    1  UNL11      -0.0469
     22 C           2.3284   -4.7677   -4.9218 C.ar    1  UNL11      -0.0257
     23 C           0.9615   -4.6416   -5.0023 C.ar    1  UNL11       0.1234
     24 F           0.2572   -5.3161   -5.9212 F       1  UNL11      -0.2055
     25 C           0.3018   -3.8129   -4.1262 C.ar    1  UNL11      -0.0257
     26 C           1.0197   -3.1216   -3.1820 C.ar    1  UNL11      -0.0469
     27 H          -1.2493   -0.4225   -1.3501 H       1  UNL11       0.0364
     28 H          -0.8654    1.2394   -0.8197 H       1  UNL11       0.0364
     29 H          -1.1182   -1.3085    0.9065 H       1  UNL11       0.0392
     30 H          -0.6330    0.2428    1.5983 H       1  UNL11       0.0392
     31 H          -4.8243   -0.3922    4.0859 H       1  UNL11       0.0661
     32 H          -7.2400    0.2545    4.2400 H       1  UNL11       0.0619
     33 H          -8.3020    1.2720    2.3403 H       1  UNL11       0.0618
     34 H          -7.0409    1.6991    0.2045 H       1  UNL11       0.0627
     35 H          -2.6335    0.9029   -1.1251 H       1  UNL11       0.3013
     36 H           0.5588   -2.2014   -1.4030 H       1  UNL11       0.1728
     37 H           3.2586   -1.1609   -0.4401 H       1  UNL11       0.1731
     38 H           4.1044   -4.1635   -3.9040 H       1  UNL11       0.0626
     39 H           2.8163   -5.4330   -5.6317 H       1  UNL11       0.0646
     40 H          -0.7820   -3.6779   -4.1475 H       1  UNL11       0.0646
     41 H           0.4795   -2.4735   -2.5029 H       1  UNL11       0.0626
@<TRIPOS>BOND
     1     1     2    2
     2     2     3    1
     3     2    16   am
     4     3     4    1
     5     3    27    1
     6     3    28    1
     7     4     5    1
     8     4    29    1
     9     4    30    1
    10     5     6    2
    11     6     7    1
    12     7     8   ar
    13     8     9   ar
    14     8    31    1
    15     9    10   ar
    16     9    32    1
    17    10    11   ar
    18    10    33    1
    19    11    12   ar
    20    11    34    1
    21    12    13    1
    22    12     7   ar
    23    13    14    2
    24    13    15   am
    25    15     5    1
    26    15    35    1
    27    16    17    1
    28    16    36    1
    29    17    18   am
    30    17    37    1
    31    18    19    2
    32    18    20    1
    33    20    21   ar
    34    21    22   ar
    35    21    38    1
    36    22    23   ar
    37    22    39    1
    38    23    24    1
    39    23    25   ar
    40    25    26   ar
    41    25    40    1
    42    26    20   ar
    43    26    41    1
@<TRIPOS>MOLECULE
*****
 41 43 0 0 0
SMALL
GASTEIGER

@<TRIPOS>ATOM
      1 O           1.1834   -0.5506   -1.8272 O.2     1  UNL11      -0.2743
      2 C           0.7290   -0.2184   -0.6751 C.2     1  UNL11       0.2296
      3 C          -0.6815    0.1710   -0.6006 C.3     1  UNL11       0.0363
      4 C          -1.2134   -0.2031    0.7799 C.3     1  UNL11       0.0595
      5 C          -0.4253    0.5407    1.7881 C.2     1  UNL11       0.2951
      6 N           0.5505    1.3578    1.3634 N.2     1  UNL11      -0.0454
      7 C           1.2890    2.0643    2.2371 C.ar    1  UNL11       0.1903
      8 C           2.2889    2.9008    1.8141 C.ar    1  UNL11      -0.0100
      9 C           3.0517    3.6279    2.7046 C.ar    1  UNL11      -0.0576
     10 C           2.7715    3.4858    4.0606 C.ar    1  UNL11      -0.0607
     11 C           1.7604    2.6410    4.5076 C.ar    1  UNL11      -0.0432
     12 C           1.0186    1.9294    3.5935 C.ar    1  UNL11       0.1121
     13 C           0.0039    1.0756    3.9836 C.2     1  UNL11       0.3368
     14 O          -0.2152    0.9774    5.2184 O.2     1  UNL11      -0.2416
     15 N          -0.7310    0.3709    3.0995 N.am    1  UNL11      -0.1702
     16 N           1.6279   -0.2602    0.4077 N.am    1  UNL11      -0.2341
     17 N           2.9539   -0.6681    0.1129 N.am    1  UNL11      -0.2304
     18 C           4.0117   -0.1240    0.9231 C.2     1  UNL11       0.2601
     19 O           5.1916   -0.4986    0.6246 O.2     1  UNL11      -0.2687
     20 C           3.7691    0.7997    2.0183 C.ar    1  UNL11       0.0383
     21 C           4.8546    1.2760    2.7256 C.ar    1  UNL11      -0.0469
     22 C           4.7041    2.1635    3.7764 C.ar    1  UNL11      -0.0257
     23 C           3.4465    2.5890    4.1343 C.ar    1  UNL11       0.1234
     24 F           3.2689    3.4498    5.1458 F       1  UNL11      -0.2055
     25 C           2.3503    2.1284    3.4446 C.ar    1  UNL11      -0.0257
     26 C           2.5282    1.2479    2.4064 C.ar    1  UNL11      -0.0469
     27 H          -1.2493   -0.4225   -1.3501 H       1  UNL11       0.0364
     28 H          -0.8654    1.2394   -0.8197 H       1  UNL11       0.0364
     29 H          -2.2844    0.1073    0.8409 H       1  UNL11       0.0392
     30 H          -1.2047   -1.2855    0.9639 H       1  UNL11       0.0392
     31 H           2.4940    2.9998    0.7487 H       1  UNL11       0.0661
     32 H           3.8449    4.2966    2.4132 H       1  UNL11       0.0619
     33 H           3.3629    4.0537    4.7543 H       1  UNL11       0.0618
     34 H           1.5345    2.5265    5.5661 H       1  UNL11       0.0627
     35 H          -1.4992   -0.2775    3.3841 H       1  UNL11       0.3013
     36 H           1.3118   -0.0008    1.3507 H       1  UNL11       0.1728
     37 H           3.2017   -1.3275   -0.6412 H       1  UNL11       0.1731
     38 H           5.8491    0.9445    2.4505 H       1  UNL11       0.0626
     39 H           5.5481    2.5497    4.3448 H       1  UNL11       0.0646
     40 H           1.3306    2.4355    3.6883 H       1  UNL11       0.0646
     41 H           1.6505    0.8971    1.8779 H       1  UNL11       0.0626
@<TRIPOS>BOND
     1     1     2    2
     2     2     3    1
     3     2    16   am
     4     3     4    1
     5     3    27    1
     6     3    28    1
     7     4     5    1
     8     4    29    1
     9     4    30    1
    10     5     6    2
    11     6     7    1
    12     7     8   ar
    13     8     9   ar
    14     8    31    1
    15     9    10   ar
    16     9    32    1
    17    10    11   ar
    18    10    33    1
    19    11    12   ar
    20    11    34    1
    21    12    13    1
    22    12     7   ar
    23    13    14    2
    24    13    15   am
    25    15     5    1
    26    15    35    1
    27    16    17    1
    28    16    36    1
    29    17    18   am
    30    17    37    1
    31    18    19    2
    32    18    20    1
    33    20    21   ar
    34    21    22   ar
    35    21    38    1
    36    22    23   ar
    37    22    39    1
    38    23    24    1
    39    23    25   ar
    40    25    26   ar
    41    25    40    1
    42    26    20   ar
    43    26    41    1
@<TRIPOS>MOLECULE
*****
 41 43 0 0 0
SMALL
GASTEIGER

@<TRIPOS>ATOM
      1 O           1.0545   -1.0646   -1.5818 O.2     1  UNL11      -0.2743
      2 C           0.7290   -0.2184   -0.6751 C.2     1  UNL11       0.2296
      3 C          -0.6815    0.1710   -0.6006 C.3     1  UNL11       0.0363
      4 C          -1.2134   -0.2031    0.7799 C.3     1  UNL11       0.0595
      5 C          -1.0486   -1.6641    0.9505 C.2     1  UNL11       0.2951
      6 N          -0.5030   -2.3690   -0.0524 N.2     1  UNL11      -0.0454
      7 C          -0.3214   -3.6968    0.0555 C.ar    1  UNL11       0.1903
      8 C           0.2337   -4.4265   -0.9634 C.ar    1  UNL11      -0.0100
      9 C           0.4220   -5.7893   -0.8606 C.ar    1  UNL11      -0.0576
     10 C           0.0280   -6.4079    0.3225 C.ar    1  UNL11      -0.0607
     11 C          -0.5374   -5.6828    1.3667 C.ar    1  UNL11      -0.0432
     12 C          -0.7121   -4.3250    1.2318 C.ar    1  UNL11       0.1121
     13 C          -1.2697   -3.5577    2.2373 C.2     1  UNL11       0.3368
     14 O          -1.6115   -4.1574    3.2889 O.2     1  UNL11      -0.2416
     15 N          -1.4481   -2.2263    2.1194 N.am    1  UNL11      -0.1702
     16 N           1.7571    0.2550    0.1622 N.am    1  UNL11      -0.2341
     17 N           3.0575   -0.2553   -0.0834 N.am    1  UNL11      -0.2304
     18 C           3.3772   -0.6358   -1.4341 C.2     1  UNL11       0.2601
     19 O           4.5472   -1.1032   -1.6196 O.2     1  UNL11      -0.2687
     20 C           2.4357   -0.5045   -2.5332 C.ar    1  UNL11       0.0383
     21 C           1.1825    0.0077   -2.2639 C.ar    1  UNL11      -0.0469
     22 C           0.2348    0.1694   -3.2590 C.ar    1  UNL11      -0.0257
     23 C           0.5374   -0.1856   -4.5525 C.ar    1  UNL11       0.1234
     24 F          -0.3585   -0.0387   -5.5381 F       1  UNL11      -0.2055
     25 C           1.7790   -0.6980   -4.8449 C.ar    1  UNL11      -0.0257
     26 C           2.7003   -0.8482   -3.8382 C.ar    1  UNL11      -0.0469
     27 H          -1.2493   -0.4225   -1.3501 H       1  UNL11       0.0364
     28 H          -0.8654    1.2394   -0.8197 H       1  UNL11       0.0364
     29 H          -0.6060    0.3328    1.5487 H       1  UNL11       0.0392
     30 H          -2.2509    0.1181    0.9411 H       1  UNL11       0.0392
     31 H           0.5365   -3.9254   -1.8821 H       1  UNL11       0.0661
     32 H           0.8555   -6.3983   -1.6368 H       1  UNL11       0.0619
     33 H           0.1770   -7.4684    0.4044 H       1  UNL11       0.0618
     34 H          -0.8458   -6.1595    2.2952 H       1  UNL11       0.0627
     35 H          -1.8693   -1.6378    2.8729 H       1  UNL11       0.3013
     36 H           1.5468    0.9361    0.9026 H       1  UNL11       0.1728
     37 H           3.7814   -0.3673    0.6434 H       1  UNL11       0.1731
     38 H           0.9358    0.2889   -1.2467 H       1  UNL11       0.0626
     39 H          -0.7577    0.5719   -3.0654 H       1  UNL11       0.0646
     40 H           2.0696   -0.9948   -5.8553 H       1  UNL11       0.0646
     41 H           3.6716   -1.2551   -4.0911 H       1  UNL11       0.0626
@<TRIPOS>BOND
     1     1     2    2
     2     2     3    1
     3     2    16   am
     4     3     4    1
     5     3    27    1
     6     3    28    1
     7     4     5    1
     8     4    29    1
     9     4    30    1
    10     5     6    2
    11     6     7    1
    12     7     8   ar
    13     8     9   ar
    14     8    31    1
    15     9    10   ar
    16     9    32    1
    17    10    11   ar
    18    10    33    1
    19    11    12   ar
    20    11    34    1
    21    12    13    1
    22    12     7   ar
    23    13    14    2
    24    13    15   am
    25    15     5    1
    26    15    35    1
    27    16    17    1
    28    16    36    1
    29    17    18   am
    30    17    37    1
    31    18    19    2
    32    18    20    1
    33    20    21   ar
    34    21    22   ar
    35    21    38    1
    36    22    23   ar
    37    22    39    1
    38    23    24    1
    39    23    25   ar
    40    25    26   ar
    41    25    40    1
    42    26    20   ar
    43    26    41    1
@<TRIPOS>MOLECULE
*****
 41 43 0 0 0
SMALL
GASTEIGER

@<TRIPOS>ATOM
      1 O           1.3961   -0.2102    0.4199 O.2     1  UNL11      -0.2743
      2 C           0.7290   -0.2184   -0.6751 C.2     1  UNL11       0.2296
      3 C          -0.6815    0.1710   -0.6006 C.3     1  UNL11       0.0363
      4 C          -1.2134   -0.2031    0.7799 C.3     1  UNL11       0.0595
      5 C          -1.0486   -1.6641    0.9505 C.2     1  UNL11       0.2951
      6 N          -1.9278   -2.3226    1.7211 N.2     1  UNL11      -0.0454
      7 C          -1.8294   -3.6515    1.9005 C.ar    1  UNL11       0.1903
      8 C          -2.7213   -4.3336    2.6866 C.ar    1  UNL11      -0.0100
      9 C          -2.6261   -5.6968    2.8765 C.ar    1  UNL11      -0.0576
     10 C          -1.5862   -6.3663    2.2379 C.ar    1  UNL11      -0.0607
     11 C          -0.6718   -5.6897    1.4367 C.ar    1  UNL11      -0.0432
     12 C          -0.7944   -4.3300    1.2685 C.ar    1  UNL11       0.1121
     13 C           0.0870   -3.6093    0.4848 C.2     1  UNL11       0.3368
     14 O           1.0117   -4.2542   -0.0735 O.2     1  UNL11      -0.2416
     15 N          -0.0198   -2.2764    0.3112 N.am    1  UNL11      -0.1702
     16 N           1.4152   -0.5998   -1.8438 N.am    1  UNL11      -0.2341
     17 N           2.7839   -0.9387   -1.6908 N.am    1  UNL11      -0.2304
     18 C           3.1930   -1.4957   -0.4284 C.2     1  UNL11       0.2601
     19 O           4.4301   -1.7764   -0.3175 O.2     1  UNL11      -0.2687
     20 C           2.2665   -1.7295    0.6665 C.ar    1  UNL11       0.0383
     21 C           0.9502   -2.0111    0.3613 C.ar    1  UNL11      -0.0469
     22 C           0.0112   -2.2521    1.3486 C.ar    1  UNL11      -0.0257
     23 C           0.3870   -2.2128    2.6707 C.ar    1  UNL11       0.1234
     24 F          -0.4988   -2.4441    3.6492 F       1  UNL11      -0.2055
     25 C           1.6925   -1.9343    2.9991 C.ar    1  UNL11      -0.0257
     26 C           2.6034   -1.6986    1.9995 C.ar    1  UNL11      -0.0469
     27 H          -1.2493   -0.4225   -1.3501 H       1  UNL11       0.0364
     28 H          -0.8654    1.2394   -0.8197 H       1  UNL11       0.0364
     29 H          -0.6060    0.3328    1.5487 H       1  UNL11       0.0392
     30 H          -2.2509    0.1181    0.9411 H       1  UNL11       0.0392
     31 H          -3.5292   -3.7931    3.1785 H       1  UNL11       0.0661
     32 H          -3.3067   -6.2698    3.4846 H       1  UNL11       0.0619
     33 H          -1.5131   -7.4280    2.3829 H       1  UNL11       0.0618
     34 H           0.1425   -6.2071    0.9328 H       1  UNL11       0.0627
     35 H           0.6416   -1.7225   -0.2782 H       1  UNL11       0.3013
     36 H           0.9233   -0.6243   -2.7460 H       1  UNL11       0.1728
     37 H           3.4967   -0.8114   -2.4261 H       1  UNL11       0.1731
     38 H           0.6456   -2.0429   -0.6784 H       1  UNL11       0.0626
     39 H          -1.0305   -2.4761    1.1268 H       1  UNL11       0.0646
     40 H           2.0424   -1.8916    4.0331 H       1  UNL11       0.0646
     41 H           3.6260   -1.4799    2.2812 H       1  UNL11       0.0626
@<TRIPOS>BOND
     1     1     2    2
     2     2     3    1
     3     2    16   am
     4     3     4    1
     5     3    27    1
     6     3    28    1
     7     4     5    1
     8     4    29    1
     9     4    30    1
    10     5     6    2
    11     6     7    1
    12     7     8   ar
    13     8     9   ar
    14     8    31    1
    15     9    10   ar
    16     9    32    1
    17    10    11   ar
    18    10    33    1
    19    11    12   ar
    20    11    34    1
    21    12    13    1
    22    12     7   ar
    23    13    14    2
    24    13    15   am
    25    15     5    1
    26    15    35    1
    27    16    17    1
    28    16    36    1
    29    17    18   am
    30    17    37    1
    31    18    19    2
    32    18    20    1
    33    20    21   ar
    34    21    22   ar
    35    21    38    1
    36    22    23   ar
    37    22    39    1
    38    23    24    1
    39    23    25   ar
    40    25    26   ar
    41    25    40    1
    42    26    20   ar
    43    26    41    1
@<TRIPOS>MOLECULE
*****
 41 43 0 0 0
SMALL
GASTEIGER

@<TRIPOS>ATOM
      1 O           1.0950   -1.2257    0.0287 O.2     1  UNL11      -0.2743
      2 C           0.7290   -0.2184   -0.6751 C.2     1  UNL11       0.2296
      3 C          -0.6815    0.1710   -0.6006 C.3     1  UNL11       0.0363
      4 C          -1.2134   -0.2031    0.7799 C.3     1  UNL11       0.0595
      5 C          -2.6421    0.1795    0.8361 C.2     1  UNL11       0.2951
      6 N          -3.3212   -0.0439    1.9716 N.2     1  UNL11      -0.0454
      7 C          -4.6181    0.2945    2.0788 C.ar    1  UNL11       0.1903
      8 C          -5.3214    0.0696    3.2335 C.ar    1  UNL11      -0.0100
      9 C          -6.6525    0.4128    3.3506 C.ar    1  UNL11      -0.0576
     10 C          -7.2665    1.0019    2.2490 C.ar    1  UNL11      -0.0607
     11 C          -6.5678    1.2371    1.0690 C.ar    1  UNL11      -0.0432
     12 C          -5.2415    0.8823    0.9848 C.ar    1  UNL11       0.1121
     13 C          -4.5015    1.0924   -0.1637 C.2     1  UNL11       0.3368
     14 O          -5.0960    1.6271   -1.1349 O.2     1  UNL11      -0.2416
     15 N          -3.2012    0.7492   -0.2616 N.am    1  UNL11      -0.1702
     16 N           1.7167    0.4174   -1.4512 N.am    1  UNL11      -0.2341
     17 N           1.2980    1.5391   -2.2115 N.am    1  UNL11      -0.2304
     18 C          -0.0675    1.5611   -2.6657 C.2     1  UNL11       0.2601
     19 O          -0.4088    2.5745   -3.3573 O.2     1  UNL11      -0.2687
     20 C          -1.0144    0.5004   -2.3657 C.ar    1  UNL11       0.0383
     21 C          -0.5797   -0.5715   -1.6125 C.ar    1  UNL11      -0.0469
     22 C          -1.4244   -1.6158   -1.2802 C.ar    1  UNL11      -0.0257
     23 C          -2.7319   -1.5964   -1.7052 C.ar    1  UNL11       0.1234
     24 F          -3.5745   -2.5919   -1.3975 F       1  UNL11      -0.2055
     25 C          -3.1877   -0.5394   -2.4566 C.ar    1  UNL11      -0.0257
     26 C          -2.3281    0.4834   -2.7723 C.ar    1  UNL11      -0.0469
     27 H          -1.2493   -0.4225   -1.3501 H       1  UNL11       0.0364
     28 H          -0.8654    1.2394   -0.8197 H       1  UNL11       0.0364
     29 H          -1.1182   -1.3085    0.9065 H       1  UNL11       0.0392
     30 H          -0.6330    0.2428    1.5983 H       1  UNL11       0.0392
     31 H          -4.8243   -0.3922    4.0859 H       1  UNL11       0.0661
     32 H          -7.2400    0.2545    4.2400 H       1  UNL11       0.0619
     33 H          -8.3020    1.2720    2.3403 H       1  UNL11       0.0618
     34 H          -7.0409    1.6991    0.2045 H       1  UNL11       0.0627
     35 H          -2.6335    0.9029   -1.1251 H       1  UNL11       0.3013
     36 H           2.6826    0.0660   -1.4454 H       1  UNL11       0.1728
     37 H           1.9098    2.3338   -2.4545 H       1  UNL11       0.1731
     38 H           0.4498   -0.5949   -1.2747 H       1  UNL11       0.0626
     39 H          -1.0993   -2.4686   -0.6871 H       1  UNL11       0.0646
     40 H          -4.2165   -0.4755   -2.8183 H       1  UNL11       0.0646
     41 H          -2.7082    1.3053   -3.3662 H       1  UNL11       0.0626
@<TRIPOS>BOND
     1     1     2    2
     2     2     3    1
     3     2    16   am
     4     3     4    1
     5     3    27    1
     6     3    28    1
     7     4     5    1
     8     4    29    1
     9     4    30    1
    10     5     6    2
    11     6     7    1
    12     7     8   ar
    13     8     9   ar
    14     8    31    1
    15     9    10   ar
    16     9    32    1
    17    10    11   ar
    18    10    33    1
    19    11    12   ar
    20    11    34    1
    21    12    13    1
    22    12     7   ar
    23    13    14    2
    24    13    15   am
    25    15     5    1
    26    15    35    1
    27    16    17    1
    28    16    36    1
    29    17    18   am
    30    17    37    1
    31    18    19    2
    32    18    20    1
    33    20    21   ar
    34    21    22   ar
    35    21    38    1
    36    22    23   ar
    37    22    39    1
    38    23    24    1
    39    23    25   ar
    40    25    26   ar
    41    25    40    1
    42    26    20   ar
    43    26    41    1
@<TRIPOS>MOLECULE
*****
 41 43 0 0 0
SMALL
GASTEIGER

@<TRIPOS>ATOM
      1 O           1.0003   -1.4627   -0.5266 O.2     1  UNL11      -0.2743
      2 C           0.7290   -0.2184   -0.6751 C.2     1  UNL11       0.2296
      3 C          -0.6815    0.1710   -0.6006 C.3     1  UNL11       0.0363
      4 C          -1.2134   -0.2031    0.7799 C.3     1  UNL11       0.0595
      5 C          -2.6421    0.1795    0.8361 C.2     1  UNL11       0.2951
      6 N          -3.1966    0.7473   -0.2458 N.2     1  UNL11      -0.0454
      7 C          -4.4930    1.1040   -0.2509 C.ar    1  UNL11       0.1903
      8 C          -5.0690    1.6858   -1.3501 C.ar    1  UNL11      -0.0100
      9 C          -6.3980    2.0557   -1.3624 C.ar    1  UNL11      -0.0576
     10 C          -7.1451    1.8167   -0.2125 C.ar    1  UNL11      -0.0607
     11 C          -6.5766    1.2274    0.9123 C.ar    1  UNL11      -0.0432
     12 C          -5.2482    0.8710    0.8921 C.ar    1  UNL11       0.1121
     13 C          -4.6336    0.2839    1.9822 C.2     1  UNL11       0.3368
     14 O          -5.3459    0.0864    3.0001 O.2     1  UNL11      -0.2416
     15 N          -3.3325   -0.0701    1.9777 N.am    1  UNL11      -0.1702
     16 N           1.8116    0.6545   -0.8948 N.am    1  UNL11      -0.2341
     17 N           3.1013    0.0654   -0.9298 N.am    1  UNL11      -0.2304
     18 C           4.0951    0.6919   -1.7612 C.2     1  UNL11       0.2601
     19 O           3.7178    1.7297   -2.3953 O.2     1  UNL11      -0.2687
     20 C           5.4526    0.1876   -1.8817 C.ar    1  UNL11       0.0383
     21 C           6.3348    0.8702   -2.6948 C.ar    1  UNL11      -0.0469
     22 C           7.6452    0.4555   -2.8543 C.ar    1  UNL11      -0.0257
     23 C           8.0914   -0.6634   -2.1913 C.ar    1  UNL11       0.1234
     24 F           9.3553   -1.0884   -2.3237 F       1  UNL11      -0.2055
     25 C           7.2311   -1.3598   -1.3760 C.ar    1  UNL11      -0.0257
     26 C           5.9359   -0.9264   -1.2361 C.ar    1  UNL11      -0.0469
     27 H          -1.2493   -0.4225   -1.3501 H       1  UNL11       0.0364
     28 H          -0.8654    1.2394   -0.8197 H       1  UNL11       0.0364
     29 H          -1.1182   -1.3085    0.9065 H       1  UNL11       0.0392
     30 H          -0.6330    0.2428    1.5983 H       1  UNL11       0.0392
     31 H          -4.4689    1.8649   -2.2416 H       1  UNL11       0.0661
     32 H          -6.8886    2.5137   -2.2055 H       1  UNL11       0.0619
     33 H          -8.1806    2.1018   -0.2223 H       1  UNL11       0.0618
     34 H          -7.1552    1.0358    1.8140 H       1  UNL11       0.0627
     35 H          -2.8585   -0.5134    2.7965 H       1  UNL11       0.3013
     36 H           1.6452    1.6608   -1.0219 H       1  UNL11       0.1728
     37 H           3.3663   -0.7780   -0.3974 H       1  UNL11       0.1731
     38 H           5.9906    1.7525   -3.2217 H       1  UNL11       0.0626
     39 H           8.3546    0.9813   -3.4905 H       1  UNL11       0.0646
     40 H           7.5354   -2.2539   -0.8271 H       1  UNL11       0.0646
     41 H           5.2752   -1.4910   -0.5899 H       1  UNL11       0.0626
@<TRIPOS>BOND
     1     1     2    2
     2     2     3    1
     3     2    16   am
     4     3     4    1
     5     3    27    1
     6     3    28    1
     7     4     5    1
     8     4    29    1
     9     4    30    1
    10     5     6    2
    11     6     7    1
    12     7     8   ar
    13     8     9   ar
    14     8    31    1
    15     9    10   ar
    16     9    32    1
    17    10    11   ar
    18    10    33    1
    19    11    12   ar
    20    11    34    1
    21    12    13    1
    22    12     7   ar
    23    13    14    2
    24    13    15   am
    25    15     5    1
    26    15    35    1
    27    16    17    1
    28    16    36    1
    29    17    18   am
    30    17    37    1
    31    18    19    2
    32    18    20    1
    33    20    21   ar
    34    21    22   ar
    35    21    38    1
    36    22    23   ar
    37    22    39    1
    38    23    24    1
    39    23    25   ar
    40    25    26   ar
    41    25    40    1
    42    26    20   ar
    43    26    41    1
@<TRIPOS>MOLECULE
*****
 41 43 0 0 0
SMALL
GASTEIGER

@<TRIPOS>ATOM
      1 O           1.5815    0.7133   -0.8969 O.2     1  UNL11      -0.2743
      2 C           0.7290   -0.2184   -0.6751 C.2     1  UNL11       0.2296
      3 C          -0.6815    0.1710   -0.6006 C.3     1  UNL11       0.0363
      4 C          -1.2134   -0.2031    0.7799 C.3     1  UNL11       0.0595
      5 C          -0.4253    0.5407    1.7881 C.2     1  UNL11       0.2951
      6 N           0.6821   -0.0312    2.2853 N.2     1  UNL11      -0.0454
      7 C           1.4394    0.6059    3.1955 C.ar    1  UNL11       0.1903
      8 C           2.5716    0.0304    3.7107 C.ar    1  UNL11      -0.0100
      9 C           3.3530    0.6772    4.6458 C.ar    1  UNL11      -0.0576
     10 C           2.9532    1.9464    5.0542 C.ar    1  UNL11      -0.0607
     11 C           1.8066    2.5455    4.5419 C.ar    1  UNL11      -0.0432
     12 C           1.0491    1.8731    3.6112 C.ar    1  UNL11       0.1121
     13 C          -0.0992    2.4215    3.0713 C.2     1  UNL11       0.3368
     14 O          -0.4235    3.5702    3.4686 O.2     1  UNL11      -0.2416
     15 N          -0.8523    1.7744    2.1590 N.am    1  UNL11      -0.1702
     16 N           1.2292   -1.5259   -0.5251 N.am    1  UNL11      -0.2341
     17 N           2.6346   -1.6813   -0.6352 N.am    1  UNL11      -0.2304
     18 C           3.3404   -0.7574   -1.4835 C.2     1  UNL11       0.2601
     19 O           4.5987   -0.9317   -1.5724 O.2     1  UNL11      -0.2687
     20 C           2.6757    0.3147   -2.2049 C.ar    1  UNL11       0.0383
     21 C           3.4416    1.1387   -3.0048 C.ar    1  UNL11      -0.0469
     22 C           2.8796    2.1760   -3.7277 C.ar    1  UNL11      -0.0257
     23 C           1.5251    2.4016   -3.6555 C.ar    1  UNL11       0.1234
     24 F           0.9515    3.3967   -4.3457 F       1  UNL11      -0.2055
     25 C           0.7419    1.5941   -2.8655 C.ar    1  UNL11      -0.0257
     26 C           1.3256    0.5723   -2.1584 C.ar    1  UNL11      -0.0469
     27 H          -1.2493   -0.4225   -1.3501 H       1  UNL11       0.0364
     28 H          -0.8654    1.2394   -0.8197 H       1  UNL11       0.0364
     29 H          -2.2844    0.1073    0.8409 H       1  UNL11       0.0392
     30 H          -1.2047   -1.2855    0.9639 H       1  UNL11       0.0392
     31 H           2.8695   -0.9637    3.3791 H       1  UNL11       0.0661
     32 H           4.2499    0.2607    5.0739 H       1  UNL11       0.0619
     33 H           3.5625    2.4518    5.7800 H       1  UNL11       0.0618
     34 H           1.4892    3.5383    4.8551 H       1  UNL11       0.0627
     35 H          -1.7221    2.1797    1.7457 H       1  UNL11       0.3013
     36 H           0.5857   -2.3066   -0.3437 H       1  UNL11       0.1728
     37 H           3.1758   -2.4110   -0.1457 H       1  UNL11       0.1731
     38 H           4.5102    0.9682   -3.0662 H       1  UNL11       0.0626
     39 H           3.4676    2.8352   -4.3636 H       1  UNL11       0.0646
     40 H          -0.3381    1.7304   -2.7738 H       1  UNL11       0.0646
     41 H           0.6897   -0.0504   -1.5415 H       1  UNL11       0.0626
@<TRIPOS>BOND
     1     1     2    2
     2     2     3    1
     3     2    16   am
     4     3     4    1
     5     3    27    1
     6     3    28    1
     7     4     5    1
     8     4    29    1
     9     4    30    1
    10     5     6    2
    11     6     7    1
    12     7     8   ar
    13     8     9   ar
    14     8    31    1
    15     9    10   ar
    16     9    32    1
    17    10    11   ar
    18    10    33    1
    19    11    12   ar
    20    11    34    1
    21    12    13    1
    22    12     7   ar
    23    13    14    2
    24    13    15   am
    25    15     5    1
    26    15    35    1
    27    16    17    1
    28    16    36    1
    29    17    18   am
    30    17    37    1
    31    18    19    2
    32    18    20    1
    33    20    21   ar
    34    21    22   ar
    35    21    38    1
    36    22    23   ar
    37    22    39    1
    38    23    24    1
    39    23    25   ar
    40    25    26   ar
    41    25    40    1
    42    26    20   ar
    43    26    41    1
@<TRIPOS>MOLECULE
*****
 41 43 0 0 0
SMALL
GASTEIGER

@<TRIPOS>ATOM
      1 O           0.9876   -1.3977   -1.1068 O.2     1  UNL11      -0.2743
      2 C           0.7290   -0.2184   -0.6751 C.2     1  UNL11       0.2296
      3 C          -0.6815    0.1710   -0.6006 C.3     1  UNL11       0.0363
      4 C          -1.2134   -0.2031    0.7799 C.3     1  UNL11       0.0595
      5 C          -2.6421    0.1795    0.8361 C.2     1  UNL11       0.2951
      6 N          -2.9600    1.4080    1.2720 N.2     1  UNL11      -0.0454
      7 C          -4.2418    1.8093    1.3326 C.ar    1  UNL11       0.1903
      8 C          -4.5776    3.0615    1.7775 C.ar    1  UNL11      -0.0100
      9 C          -5.8905    3.4799    1.8438 C.ar    1  UNL11      -0.0576
     10 C          -6.8750    2.5826    1.4398 C.ar    1  UNL11      -0.0607
     11 C          -6.5522    1.3077    0.9859 C.ar    1  UNL11      -0.0432
     12 C          -5.2331    0.9213    0.9327 C.ar    1  UNL11       0.1121
     13 C          -4.8576   -0.3336    0.4913 C.2     1  UNL11       0.3368
     14 O          -5.7795   -1.1123    0.1361 O.2     1  UNL11      -0.2416
     15 N          -3.5690   -0.7269    0.4344 N.am    1  UNL11      -0.1702
     16 N           1.8242    0.5890   -0.3135 N.am    1  UNL11      -0.2341
     17 N           3.1113    0.0126   -0.4642 N.am    1  UNL11      -0.2304
     18 C           4.1424    0.4438    0.4426 C.2     1  UNL11       0.2601
     19 O           5.2898   -0.0817    0.2728 O.2     1  UNL11      -0.2687
     20 C           3.9091    1.4199    1.4935 C.ar    1  UNL11       0.0383
     21 C           4.9692    1.7776    2.3019 C.ar    1  UNL11      -0.0469
     22 C           4.8268    2.7053    3.3185 C.ar    1  UNL11      -0.0257
     23 C           3.6031    3.2925    3.5387 C.ar    1  UNL11       0.1234
     24 F           3.4344    4.1959    4.5139 F       1  UNL11      -0.2055
     25 C           2.5325    2.9521    2.7466 C.ar    1  UNL11      -0.0257
     26 C           2.7017    2.0284    1.7452 C.ar    1  UNL11      -0.0469
     27 H          -1.2493   -0.4225   -1.3501 H       1  UNL11       0.0364
     28 H          -0.8654    1.2394   -0.8197 H       1  UNL11       0.0364
     29 H          -1.1182   -1.3085    0.9065 H       1  UNL11       0.0392
     30 H          -0.6330    0.2428    1.5983 H       1  UNL11       0.0392
     31 H          -3.7936    3.7506    2.0894 H       1  UNL11       0.0661
     32 H          -6.1960    4.4551    2.1857 H       1  UNL11       0.0619
     33 H          -7.8973    2.9086    1.4884 H       1  UNL11       0.0618
     34 H          -7.3166    0.6017    0.6665 H       1  UNL11       0.0627
     35 H          -3.2750   -1.6732    0.1033 H       1  UNL11       0.3013
     36 H           1.6685    1.5430    0.0361 H       1  UNL11       0.1728
     37 H           3.3488   -0.6928   -1.1790 H       1  UNL11       0.1731
     38 H           5.9368    1.3185    2.1355 H       1  UNL11       0.0626
     39 H           5.6512    2.9997    3.9652 H       1  UNL11       0.0646
     40 H           1.5402    3.3893    2.8794 H       1  UNL11       0.0646
     41 H           1.8443    1.7743    1.1342 H       1  UNL11       0.0626
@<TRIPOS>BOND
     1     1     2    2
     2     2     3    1
     3     2    16   am
     4     3     4    1
     5     3    27    1
     6     3    28    1
     7     4     5    1
     8     4    29    1
     9     4    30    1
    10     5     6    2
    11     6     7    1
    12     7     8   ar
    13     8     9   ar
    14     8    31    1
    15     9    10   ar
    16     9    32    1
    17    10    11   ar
    18    10    33    1
    19    11    12   ar
    20    11    34    1
    21    12    13    1
    22    12     7   ar
    23    13    14    2
    24    13    15   am
    25    15     5    1
    26    15    35    1
    27    16    17    1
    28    16    36    1
    29    17    18   am
    30    17    37    1
    31    18    19    2
    32    18    20    1
    33    20    21   ar
    34    21    22   ar
    35    21    38    1
    36    22    23   ar
    37    22    39    1
    38    23    24    1
    39    23    25   ar
    40    25    26   ar
    41    25    40    1
    42    26    20   ar
    43    26    41    1
@<TRIPOS>MOLECULE
*****
 41 43 0 0 0
SMALL
GASTEIGER

@<TRIPOS>ATOM
      1 O           1.0950   -1.2257    0.0287 O.2     1  UNL11      -0.2743
      2 C           0.7290   -0.2184   -0.6751 C.2     1  UNL11       0.2296
      3 C          -0.6815    0.1710   -0.6006 C.3     1  UNL11       0.0363
      4 C          -1.2134   -0.2031    0.7799 C.3     1  UNL11       0.0595
      5 C          -1.0486   -1.6641    0.9505 C.2     1  UNL11       0.2951
      6 N          -2.0514   -2.4708    0.5710 N.2     1  UNL11      -0.0454
      7 C          -1.9486   -3.8057    0.6946 C.ar    1  UNL11       0.1903
      8 C          -2.9673   -4.6387    0.3113 C.ar    1  UNL11      -0.0100
      9 C          -2.8697   -6.0092    0.4363 C.ar    1  UNL11      -0.0576
     10 C          -1.6920   -6.5265    0.9683 C.ar    1  UNL11      -0.0607
     11 C          -0.6481   -5.6957    1.3629 C.ar    1  UNL11      -0.0432
     12 C          -0.7776   -4.3331    1.2255 C.ar    1  UNL11       0.1121
     13 C           0.2279   -3.4629    1.6027 C.2     1  UNL11       0.3368
     14 O           1.2745   -3.9732    2.0787 O.2     1  UNL11      -0.2416
     15 N           0.1151   -2.1253    1.4750 N.am    1  UNL11      -0.1702
     16 N           1.7167    0.4174   -1.4512 N.am    1  UNL11      -0.2341
     17 N           1.2980    1.5391   -2.2115 N.am    1  UNL11      -0.2304
     18 C          -0.0675    1.5611   -2.6657 C.2     1  UNL11       0.2601
     19 O          -0.4088    2.5745   -3.3573 O.2     1  UNL11      -0.2687
     20 C          -1.0144    0.5004   -2.3657 C.ar    1  UNL11       0.0383
     21 C          -0.5797   -0.5715   -1.6125 C.ar    1  UNL11      -0.0469
     22 C          -1.4244   -1.6158   -1.2802 C.ar    1  UNL11      -0.0257
     23 C          -2.7319   -1.5964   -1.7052 C.ar    1  UNL11       0.1234
     24 F          -3.5745   -2.5919   -1.3975 F       1  UNL11      -0.2055
     25 C          -3.1877   -0.5394   -2.4566 C.ar    1  UNL11      -0.0257
     26 C          -2.3281    0.4834   -2.7723 C.ar    1  UNL11      -0.0469
     27 H          -1.2493   -0.4225   -1.3501 H       1  UNL11       0.0364
     28 H          -0.8654    1.2394   -0.8197 H       1  UNL11       0.0364
     29 H          -0.6060    0.3328    1.5487 H       1  UNL11       0.0392
     30 H          -2.2509    0.1181    0.9411 H       1  UNL11       0.0392
     31 H          -3.8817   -4.2161   -0.1035 H       1  UNL11       0.0661
     32 H          -3.6459   -6.6979    0.1459 H       1  UNL11       0.0619
     33 H          -1.6141   -7.5935    1.0633 H       1  UNL11       0.0618
     34 H           0.2762   -6.0933    1.7777 H       1  UNL11       0.0627
     35 H           0.8687   -1.4592    1.7578 H       1  UNL11       0.3013
     36 H           2.6826    0.0660   -1.4454 H       1  UNL11       0.1728
     37 H           1.9098    2.3338   -2.4545 H       1  UNL11       0.1731
     38 H           0.4498   -0.5949   -1.2747 H       1  UNL11       0.0626
     39 H          -1.0993   -2.4686   -0.6871 H       1  UNL11       0.0646
     40 H          -4.2165   -0.4755   -2.8183 H       1  UNL11       0.0646
     41 H          -2.7082    1.3053   -3.3662 H       1  UNL11       0.0626
@<TRIPOS>BOND
     1     1     2    2
     2     2     3    1
     3     2    16   am
     4     3     4    1
     5     3    27    1
     6     3    28    1
     7     4     5    1
     8     4    29    1
     9     4    30    1
    10     5     6    2
    11     6     7    1
    12     7     8   ar
    13     8     9   ar
    14     8    31    1
    15     9    10   ar
    16     9    32    1
    17    10    11   ar
    18    10    33    1
    19    11    12   ar
    20    11    34    1
    21    12    13    1
    22    12     7   ar
    23    13    14    2
    24    13    15   am
    25    15     5    1
    26    15    35    1
    27    16    17    1
    28    16    36    1
    29    17    18   am
    30    17    37    1
    31    18    19    2
    32    18    20    1
    33    20    21   ar
    34    21    22   ar
    35    21    38    1
    36    22    23   ar
    37    22    39    1
    38    23    24    1
    39    23    25   ar
    40    25    26   ar
    41    25    40    1
    42    26    20   ar
    43    26    41    1
@<TRIPOS>MOLECULE
*****
 41 43 0 0 0
SMALL
GASTEIGER

@<TRIPOS>ATOM
      1 O           1.0950   -1.2257    0.0287 O.2     1  UNL11      -0.2743
      2 C           0.7290   -0.2184   -0.6751 C.2     1  UNL11       0.2296
      3 C          -0.6815    0.1710   -0.6006 C.3     1  UNL11       0.0363
      4 C          -1.2134   -0.2031    0.7799 C.3     1  UNL11       0.0595
      5 C          -0.4253    0.5407    1.7881 C.2     1  UNL11       0.2951
      6 N          -0.7091    0.3567    3.0866 N.2     1  UNL11      -0.0454
      7 C          -0.0165    0.9998    4.0429 C.ar    1  UNL11       0.1903
      8 C          -0.2990    0.8201    5.3720 C.ar    1  UNL11      -0.0100
      9 C           0.4063    1.4774    6.3588 C.ar    1  UNL11      -0.0576
     10 C           1.4255    2.3373    5.9599 C.ar    1  UNL11      -0.0607
     11 C           1.7256    2.5318    4.6153 C.ar    1  UNL11      -0.0432
     12 C           1.0027    1.8616    3.6560 C.ar    1  UNL11       0.1121
     13 C           1.2585    2.0193    2.3068 C.2     1  UNL11       0.3368
     14 O           2.1880    2.8059    1.9910 O.2     1  UNL11      -0.2416
     15 N           0.5579    1.3700    1.3550 N.am    1  UNL11      -0.1702
     16 N           1.7167    0.4174   -1.4512 N.am    1  UNL11      -0.2341
     17 N           3.0254   -0.1242   -1.3757 N.am    1  UNL11      -0.2304
     18 C           3.4095   -0.7631   -0.1445 C.2     1  UNL11       0.2601
     19 O           4.5948   -1.2267   -0.1032 O.2     1  UNL11      -0.2687
     20 C           2.5147   -0.8805    0.9944 C.ar    1  UNL11       0.0383
     21 C           1.2432   -0.3548    0.8848 C.ar    1  UNL11      -0.0469
     22 C           0.3324   -0.4342    1.9234 C.ar    1  UNL11      -0.0257
     23 C           0.6915   -1.0500    3.0992 C.ar    1  UNL11       0.1234
     24 F          -0.1691   -1.1445    4.1219 F       1  UNL11      -0.2055
     25 C           1.9525   -1.5810    3.2318 C.ar    1  UNL11      -0.0257
     26 C           2.8365   -1.4879    2.1856 C.ar    1  UNL11      -0.0469
     27 H          -1.2493   -0.4225   -1.3501 H       1  UNL11       0.0364
     28 H          -0.8654    1.2394   -0.8197 H       1  UNL11       0.0364
     29 H          -2.2844    0.1073    0.8409 H       1  UNL11       0.0392
     30 H          -1.2047   -1.2855    0.9639 H       1  UNL11       0.0392
     31 H          -1.1002    0.1428    5.6658 H       1  UNL11       0.0661
     32 H           0.2167    1.3629    7.4134 H       1  UNL11       0.0619
     33 H           1.9770    2.8472    6.7276 H       1  UNL11       0.0618
     34 H           2.5224    3.2010    4.2963 H       1  UNL11       0.0627
     35 H           0.7428    1.4830    0.3329 H       1  UNL11       0.3013
     36 H           1.4722    1.2279   -2.0341 H       1  UNL11       0.1728
     37 H           3.7114   -0.0882   -2.1458 H       1  UNL11       0.1731
     38 H           0.9527    0.1332   -0.0383 H       1  UNL11       0.0626
     39 H          -0.6742   -0.0259    1.8547 H       1  UNL11       0.0646
     40 H           2.2872   -2.0805    4.1439 H       1  UNL11       0.0646
     41 H           3.8249   -1.9120    2.3125 H       1  UNL11       0.0626
@<TRIPOS>BOND
     1     1     2    2
     2     2     3    1
     3     2    16   am
     4     3     4    1
     5     3    27    1
     6     3    28    1
     7     4     5    1
     8     4    29    1
     9     4    30    1
    10     5     6    2
    11     6     7    1
    12     7     8   ar
    13     8     9   ar
    14     8    31    1
    15     9    10   ar
    16     9    32    1
    17    10    11   ar
    18    10    33    1
    19    11    12   ar
    20    11    34    1
    21    12    13    1
    22    12     7   ar
    23    13    14    2
    24    13    15   am
    25    15     5    1
    26    15    35    1
    27    16    17    1
    28    16    36    1
    29    17    18   am
    30    17    37    1
    31    18    19    2
    32    18    20    1
    33    20    21   ar
    34    21    22   ar
    35    21    38    1
    36    22    23   ar
    37    22    39    1
    38    23    24    1
    39    23    25   ar
    40    25    26   ar
    41    25    40    1
    42    26    20   ar
    43    26    41    1
@<TRIPOS>MOLECULE
*****
 41 43 0 0 0
SMALL
GASTEIGER

@<TRIPOS>ATOM
      1 O           1.0545   -1.0646   -1.5818 O.2     1  UNL11      -0.2743
      2 C           0.7290   -0.2184   -0.6751 C.2     1  UNL11       0.2296
      3 C          -0.6815    0.1710   -0.6006 C.3     1  UNL11       0.0363
      4 C          -1.2134   -0.2031    0.7799 C.3     1  UNL11       0.0595
      5 C          -0.4253    0.5407    1.7881 C.2     1  UNL11       0.2951
      6 N          -0.8580    1.7505    2.1747 N.2     1  UNL11      -0.0454
      7 C          -0.1851    2.4632    3.0951 C.ar    1  UNL11       0.1903
      8 C          -0.6175    3.7004    3.4961 C.ar    1  UNL11      -0.0100
      9 C           0.0682    4.4381    4.4390 C.ar    1  UNL11      -0.0576
     10 C           1.2248    3.8816    4.9776 C.ar    1  UNL11      -0.0607
     11 C           1.6784    2.6272    4.5819 C.ar    1  UNL11      -0.0432
     12 C           0.9716    1.9177    3.6389 C.ar    1  UNL11       0.1121
     13 C           1.3785    0.6684    3.2095 C.2     1  UNL11       0.3368
     14 O           2.4289    0.2036    3.7224 O.2     1  UNL11      -0.2416
     15 N           0.6968   -0.0386    2.2855 N.am    1  UNL11      -0.1702
     16 N           1.7571    0.2550    0.1622 N.am    1  UNL11      -0.2341
     17 N           3.0575   -0.2553   -0.0834 N.am    1  UNL11      -0.2304
     18 C           3.3772   -0.6358   -1.4341 C.2     1  UNL11       0.2601
     19 O           4.5472   -1.1032   -1.6196 O.2     1  UNL11      -0.2687
     20 C           2.4357   -0.5045   -2.5332 C.ar    1  UNL11       0.0383
     21 C           1.1825    0.0077   -2.2639 C.ar    1  UNL11      -0.0469
     22 C           0.2348    0.1694   -3.2590 C.ar    1  UNL11      -0.0257
     23 C           0.5374   -0.1856   -4.5525 C.ar    1  UNL11       0.1234
     24 F          -0.3585   -0.0387   -5.5381 F       1  UNL11      -0.2055
     25 C           1.7790   -0.6980   -4.8449 C.ar    1  UNL11      -0.0257
     26 C           2.7003   -0.8482   -3.8382 C.ar    1  UNL11      -0.0469
     27 H          -1.2493   -0.4225   -1.3501 H       1  UNL11       0.0364
     28 H          -0.8654    1.2394   -0.8197 H       1  UNL11       0.0364
     29 H          -2.2844    0.1073    0.8409 H       1  UNL11       0.0392
     30 H          -1.2047   -1.2855    0.9639 H       1  UNL11       0.0392
     31 H          -1.5252    4.1201    3.0639 H       1  UNL11       0.0661
     32 H          -0.2386    5.4125    4.7820 H       1  UNL11       0.0619
     33 H           1.7577    4.4540    5.7138 H       1  UNL11       0.0618
     34 H           2.5806    2.1851    5.0003 H       1  UNL11       0.0627
     35 H           0.9964   -0.9829    1.9537 H       1  UNL11       0.3013
     36 H           1.5468    0.9361    0.9026 H       1  UNL11       0.1728
     37 H           3.7814   -0.3673    0.6434 H       1  UNL11       0.1731
     38 H           0.9358    0.2889   -1.2467 H       1  UNL11       0.0626
     39 H          -0.7577    0.5719   -3.0654 H       1  UNL11       0.0646
     40 H           2.0696   -0.9948   -5.8553 H       1  UNL11       0.0646
     41 H           3.6716   -1.2551   -4.0911 H       1  UNL11       0.0626
@<TRIPOS>BOND
     1     1     2    2
     2     2     3    1
     3     2    16   am
     4     3     4    1
     5     3    27    1
     6     3    28    1
     7     4     5    1
     8     4    29    1
     9     4    30    1
    10     5     6    2
    11     6     7    1
    12     7     8   ar
    13     8     9   ar
    14     8    31    1
    15     9    10   ar
    16     9    32    1
    17    10    11   ar
    18    10    33    1
    19    11    12   ar
    20    11    34    1
    21    12    13    1
    22    12     7   ar
    23    13    14    2
    24    13    15   am
    25    15     5    1
    26    15    35    1
    27    16    17    1
    28    16    36    1
    29    17    18   am
    30    17    37    1
    31    18    19    2
    32    18    20    1
    33    20    21   ar
    34    21    22   ar
    35    21    38    1
    36    22    23   ar
    37    22    39    1
    38    23    24    1
    39    23    25   ar
    40    25    26   ar
    41    25    40    1
    42    26    20   ar
    43    26    41    1
@<TRIPOS>MOLECULE
*****
 41 43 0 0 0
SMALL
GASTEIGER

@<TRIPOS>ATOM
      1 O           1.0950   -1.2257    0.0287 O.2     1  UNL11      -0.2743
      2 C           0.7290   -0.2184   -0.6751 C.2     1  UNL11       0.2296
      3 C          -0.6815    0.1710   -0.6006 C.3     1  UNL11       0.0363
      4 C          -1.2134   -0.2031    0.7799 C.3     1  UNL11       0.0595
      5 C          -0.4253    0.5407    1.7881 C.2     1  UNL11       0.2951
      6 N          -0.8580    1.7505    2.1747 N.2     1  UNL11      -0.0454
      7 C          -0.1851    2.4632    3.0951 C.ar    1  UNL11       0.1903
      8 C          -0.6175    3.7004    3.4961 C.ar    1  UNL11      -0.0100
      9 C           0.0682    4.4381    4.4390 C.ar    1  UNL11      -0.0576
     10 C           1.2248    3.8816    4.9776 C.ar    1  UNL11      -0.0607
     11 C           1.6784    2.6272    4.5819 C.ar    1  UNL11      -0.0432
     12 C           0.9716    1.9177    3.6389 C.ar    1  UNL11       0.1121
     13 C           1.3785    0.6684    3.2095 C.2     1  UNL11       0.3368
     14 O           2.4289    0.2036    3.7224 O.2     1  UNL11      -0.2416
     15 N           0.6968   -0.0386    2.2855 N.am    1  UNL11      -0.1702
     16 N           1.7167    0.4174   -1.4512 N.am    1  UNL11      -0.2341
     17 N           3.0254   -0.1242   -1.3757 N.am    1  UNL11      -0.2304
     18 C           3.1465   -1.5336   -1.1105 C.2     1  UNL11       0.2601
     19 O           4.3342   -1.9867   -1.0348 O.2     1  UNL11      -0.2687
     20 C           1.9958   -2.4035   -0.9346 C.ar    1  UNL11       0.0383
     21 C           0.7354   -1.8486   -1.0269 C.ar    1  UNL11      -0.0469
     22 C          -0.4078   -2.6138   -0.8783 C.ar    1  UNL11      -0.0257
     23 C          -0.2981   -3.9621   -0.6320 C.ar    1  UNL11       0.1234
     24 F          -1.3867   -4.7297   -0.4857 F       1  UNL11      -0.2055
     25 C           0.9467   -4.5373   -0.5358 C.ar    1  UNL11      -0.0257
     26 C           2.0643   -3.7546   -0.6871 C.ar    1  UNL11      -0.0469
     27 H          -1.2493   -0.4225   -1.3501 H       1  UNL11       0.0364
     28 H          -0.8654    1.2394   -0.8197 H       1  UNL11       0.0364
     29 H          -2.2844    0.1073    0.8409 H       1  UNL11       0.0392
     30 H          -1.2047   -1.2855    0.9639 H       1  UNL11       0.0392
     31 H          -1.5252    4.1201    3.0639 H       1  UNL11       0.0661
     32 H          -0.2386    5.4125    4.7820 H       1  UNL11       0.0619
     33 H           1.7577    4.4540    5.7138 H       1  UNL11       0.0618
     34 H           2.5806    2.1851    5.0003 H       1  UNL11       0.0627
     35 H           0.9964   -0.9829    1.9537 H       1  UNL11       0.3013
     36 H           1.4722    1.2279   -2.0341 H       1  UNL11       0.1728
     37 H           3.8879    0.4285   -1.5000 H       1  UNL11       0.1731
     38 H           0.6404   -0.7863   -1.2196 H       1  UNL11       0.0626
     39 H          -1.4094   -2.1936   -0.9483 H       1  UNL11       0.0646
     40 H           1.0886   -5.6030   -0.3421 H       1  UNL11       0.0646
     41 H           3.0348   -4.2285   -0.6060 H       1  UNL11       0.0626
@<TRIPOS>BOND
     1     1     2    2
     2     2     3    1
     3     2    16   am
     4     3     4    1
     5     3    27    1
     6     3    28    1
     7     4     5    1
     8     4    29    1
     9     4    30    1
    10     5     6    2
    11     6     7    1
    12     7     8   ar
    13     8     9   ar
    14     8    31    1
    15     9    10   ar
    16     9    32    1
    17    10    11   ar
    18    10    33    1
    19    11    12   ar
    20    11    34    1
    21    12    13    1
    22    12     7   ar
    23    13    14    2
    24    13    15   am
    25    15     5    1
    26    15    35    1
    27    16    17    1
    28    16    36    1
    29    17    18   am
    30    17    37    1
    31    18    19    2
    32    18    20    1
    33    20    21   ar
    34    21    22   ar
    35    21    38    1
    36    22    23   ar
    37    22    39    1
    38    23    24    1
    39    23    25   ar
    40    25    26   ar
    41    25    40    1
    42    26    20   ar
    43    26    41    1
@<TRIPOS>MOLECULE
*****
 41 43 0 0 0
SMALL
GASTEIGER

@<TRIPOS>ATOM
      1 O           1.3961   -0.2102    0.4199 O.2     1  UNL11      -0.2743
      2 C           0.7290   -0.2184   -0.6751 C.2     1  UNL11       0.2296
      3 C          -0.6815    0.1710   -0.6006 C.3     1  UNL11       0.0363
      4 C          -1.2134   -0.2031    0.7799 C.3     1  UNL11       0.0595
      5 C          -1.0486   -1.6641    0.9505 C.2     1  UNL11       0.2951
      6 N          -0.8451   -2.1462    2.1861 N.2     1  UNL11      -0.0454
      7 C          -0.6998   -3.4661    2.3973 C.ar    1  UNL11       0.1903
      8 C          -0.4902   -3.9689    3.6550 C.ar    1  UNL11      -0.0100
      9 C          -0.3388   -5.3217    3.8794 C.ar    1  UNL11      -0.0576
     10 C          -0.4071   -6.1702    2.7782 C.ar    1  UNL11      -0.0607
     11 C          -0.6188   -5.6770    1.4945 C.ar    1  UNL11      -0.0432
     12 C          -0.7651   -4.3225    1.3049 C.ar    1  UNL11       0.1121
     13 C          -0.9761   -3.7798    0.0512 C.2     1  UNL11       0.3368
     14 O          -1.0307   -4.5829   -0.9156 O.2     1  UNL11      -0.2416
     15 N          -1.1204   -2.4544   -0.1505 N.am    1  UNL11      -0.1702
     16 N           1.4152   -0.5998   -1.8438 N.am    1  UNL11      -0.2341
     17 N           0.6665   -0.5885   -3.0483 N.am    1  UNL11      -0.2304
     18 C          -0.7147   -0.1916   -2.9680 C.2     1  UNL11       0.2601
     19 O          -1.1398    0.1159   -1.8076 O.2     1  UNL11      -0.2687
     20 C          -1.5871   -0.1367   -4.1288 C.ar    1  UNL11       0.0383
     21 C          -2.6090    0.7911   -4.1363 C.ar    1  UNL11      -0.0469
     22 C          -3.4758    0.9082   -5.2085 C.ar    1  UNL11      -0.0257
     23 C          -3.3253    0.0851   -6.2996 C.ar    1  UNL11       0.1234
     24 F          -4.1473    0.1762   -7.3539 F       1  UNL11      -0.2055
     25 C          -2.3148   -0.8467   -6.3149 C.ar    1  UNL11      -0.0257
     26 C          -1.4693   -0.9418   -5.2375 C.ar    1  UNL11      -0.0469
     27 H          -1.2493   -0.4225   -1.3501 H       1  UNL11       0.0364
     28 H          -0.8654    1.2394   -0.8197 H       1  UNL11       0.0364
     29 H          -0.6060    0.3328    1.5487 H       1  UNL11       0.0392
     30 H          -2.2509    0.1181    0.9411 H       1  UNL11       0.0392
     31 H          -0.4400   -3.2897    4.5053 H       1  UNL11       0.0661
     32 H          -0.1742   -5.7568    4.8514 H       1  UNL11       0.0619
     33 H          -0.2922   -7.2238    2.9524 H       1  UNL11       0.0618
     34 H          -0.6753   -6.3348    0.6293 H       1  UNL11       0.0627
     35 H          -1.2793   -2.0344   -1.0939 H       1  UNL11       0.3013
     36 H           2.4070   -0.8653   -1.7962 H       1  UNL11       0.1728
     37 H           1.0515   -0.8446   -3.9709 H       1  UNL11       0.1731
     38 H          -2.7352    1.4428   -3.2796 H       1  UNL11       0.0626
     39 H          -4.2866    1.6339   -5.2321 H       1  UNL11       0.0646
     40 H          -2.1519   -1.5236   -7.1567 H       1  UNL11       0.0646
     41 H          -0.6811   -1.6838   -5.2705 H       1  UNL11       0.0626
@<TRIPOS>BOND
     1     1     2    2
     2     2     3    1
     3     2    16   am
     4     3     4    1
     5     3    27    1
     6     3    28    1
     7     4     5    1
     8     4    29    1
     9     4    30    1
    10     5     6    2
    11     6     7    1
    12     7     8   ar
    13     8     9   ar
    14     8    31    1
    15     9    10   ar
    16     9    32    1
    17    10    11   ar
    18    10    33    1
    19    11    12   ar
    20    11    34    1
    21    12    13    1
    22    12     7   ar
    23    13    14    2
    24    13    15   am
    25    15     5    1
    26    15    35    1
    27    16    17    1
    28    16    36    1
    29    17    18   am
    30    17    37    1
    31    18    19    2
    32    18    20    1
    33    20    21   ar
    34    21    22   ar
    35    21    38    1
    36    22    23   ar
    37    22    39    1
    38    23    24    1
    39    23    25   ar
    40    25    26   ar
    41    25    40    1
    42    26    20   ar
    43    26    41    1
@<TRIPOS>MOLECULE
*****
 41 43 0 0 0
SMALL
GASTEIGER

@<TRIPOS>ATOM
      1 O           0.9876   -1.3977   -1.1068 O.2     1  UNL11      -0.2743
      2 C           0.7290   -0.2184   -0.6751 C.2     1  UNL11       0.2296
      3 C          -0.6815    0.1710   -0.6006 C.3     1  UNL11       0.0363
      4 C          -1.2134   -0.2031    0.7799 C.3     1  UNL11       0.0595
      5 C          -2.6421    0.1795    0.8361 C.2     1  UNL11       0.2951
      6 N          -3.3212   -0.0439    1.9716 N.2     1  UNL11      -0.0454
      7 C          -4.6181    0.2945    2.0788 C.ar    1  UNL11       0.1903
      8 C          -5.3214    0.0696    3.2335 C.ar    1  UNL11      -0.0100
      9 C          -6.6525    0.4128    3.3506 C.ar    1  UNL11      -0.0576
     10 C          -7.2665    1.0019    2.2490 C.ar    1  UNL11      -0.0607
     11 C          -6.5678    1.2371    1.0690 C.ar    1  UNL11      -0.0432
     12 C          -5.2415    0.8823    0.9848 C.ar    1  UNL11       0.1121
     13 C          -4.5015    1.0924   -0.1637 C.2     1  UNL11       0.3368
     14 O          -5.0960    1.6271   -1.1349 O.2     1  UNL11      -0.2416
     15 N          -3.2012    0.7492   -0.2616 N.am    1  UNL11      -0.1702
     16 N           1.8242    0.5890   -0.3135 N.am    1  UNL11      -0.2341
     17 N           1.5196    1.8847    0.1765 N.am    1  UNL11      -0.2304
     18 C           2.6235    2.7344    0.5380 C.2     1  UNL11       0.2601
     19 O           3.7850    2.2362    0.3819 O.2     1  UNL11      -0.2687
     20 C           2.4448    4.0826    1.0500 C.ar    1  UNL11       0.0383
     21 C           1.1589    4.5632    1.1935 C.ar    1  UNL11      -0.0469
     22 C           0.9086    5.8337    1.6812 C.ar    1  UNL11      -0.0257
     23 C           1.9592    6.6471    2.0350 C.ar    1  UNL11       0.1234
     24 F           1.7486    7.8814    2.5124 F       1  UNL11      -0.2055
     25 C           3.2487    6.1903    1.9009 C.ar    1  UNL11      -0.0257
     26 C           3.4686    4.9257    1.4140 C.ar    1  UNL11      -0.0469
     27 H          -1.2493   -0.4225   -1.3501 H       1  UNL11       0.0364
     28 H          -0.8654    1.2394   -0.8197 H       1  UNL11       0.0364
     29 H          -1.1182   -1.3085    0.9065 H       1  UNL11       0.0392
     30 H          -0.6330    0.2428    1.5983 H       1  UNL11       0.0392
     31 H          -4.8243   -0.3922    4.0859 H       1  UNL11       0.0661
     32 H          -7.2400    0.2545    4.2400 H       1  UNL11       0.0619
     33 H          -8.3020    1.2720    2.3403 H       1  UNL11       0.0618
     34 H          -7.0409    1.6991    0.2045 H       1  UNL11       0.0627
     35 H          -2.6335    0.9029   -1.1251 H       1  UNL11       0.3013
     36 H           2.7828    0.2305   -0.4083 H       1  UNL11       0.1728
     37 H           0.5610    2.2506    0.2864 H       1  UNL11       0.1731
     38 H           0.3253    3.9287    0.9158 H       1  UNL11       0.0626
     39 H          -0.0983    6.2291    1.8014 H       1  UNL11       0.0646
     40 H           4.1179    6.7960    2.1679 H       1  UNL11       0.0646
     41 H           4.4925    4.5870    1.3155 H       1  UNL11       0.0626
@<TRIPOS>BOND
     1     1     2    2
     2     2     3    1
     3     2    16   am
     4     3     4    1
     5     3    27    1
     6     3    28    1
     7     4     5    1
     8     4    29    1
     9     4    30    1
    10     5     6    2
    11     6     7    1
    12     7     8   ar
    13     8     9   ar
    14     8    31    1
    15     9    10   ar
    16     9    32    1
    17    10    11   ar
    18    10    33    1
    19    11    12   ar
    20    11    34    1
    21    12    13    1
    22    12     7   ar
    23    13    14    2
    24    13    15   am
    25    15     5    1
    26    15    35    1
    27    16    17    1
    28    16    36    1
    29    17    18   am
    30    17    37    1
    31    18    19    2
    32    18    20    1
    33    20    21   ar
    34    21    22   ar
    35    21    38    1
    36    22    23   ar
    37    22    39    1
    38    23    24    1
    39    23    25   ar
    40    25    26   ar
    41    25    40    1
    42    26    20   ar
    43    26    41    1
@<TRIPOS>MOLECULE
*****
 41 43 0 0 0
SMALL
GASTEIGER

@<TRIPOS>ATOM
      1 O           1.5815    0.7133   -0.8969 O.2     1  UNL11      -0.2743
      2 C           0.7290   -0.2184   -0.6751 C.2     1  UNL11       0.2296
      3 C          -0.6815    0.1710   -0.6006 C.3     1  UNL11       0.0363
      4 C          -1.2134   -0.2031    0.7799 C.3     1  UNL11       0.0595
      5 C          -0.4253    0.5407    1.7881 C.2     1  UNL11       0.2951
      6 N          -0.8580    1.7505    2.1747 N.2     1  UNL11      -0.0454
      7 C          -0.1851    2.4632    3.0951 C.ar    1  UNL11       0.1903
      8 C          -0.6175    3.7004    3.4961 C.ar    1  UNL11      -0.0100
      9 C           0.0682    4.4381    4.4390 C.ar    1  UNL11      -0.0576
     10 C           1.2248    3.8816    4.9776 C.ar    1  UNL11      -0.0607
     11 C           1.6784    2.6272    4.5819 C.ar    1  UNL11      -0.0432
     12 C           0.9716    1.9177    3.6389 C.ar    1  UNL11       0.1121
     13 C           1.3785    0.6684    3.2095 C.2     1  UNL11       0.3368
     14 O           2.4289    0.2036    3.7224 O.2     1  UNL11      -0.2416
     15 N           0.6968   -0.0386    2.2855 N.am    1  UNL11      -0.1702
     16 N           1.2292   -1.5259   -0.5251 N.am    1  UNL11      -0.2341
     17 N           2.6346   -1.6813   -0.6352 N.am    1  UNL11      -0.2304
     18 C           3.1261   -2.9330   -1.1483 C.2     1  UNL11       0.2601
     19 O           4.3923   -3.0467   -1.2219 O.2     1  UNL11      -0.2687
     20 C           2.2475   -4.0145   -1.5607 C.ar    1  UNL11       0.0383
     21 C           2.8195   -5.1815   -2.0256 C.ar    1  UNL11      -0.0469
     22 C           2.0488   -6.2574   -2.4295 C.ar    1  UNL11      -0.0257
     23 C           0.6776   -6.1736   -2.3708 C.ar    1  UNL11       0.1234
     24 F          -0.0954   -7.1995   -2.7526 F       1  UNL11      -0.2055
     25 C           0.0851   -5.0215   -1.9113 C.ar    1  UNL11      -0.0257
     26 C           0.8736   -3.9690   -1.5173 C.ar    1  UNL11      -0.0469
     27 H          -1.2493   -0.4225   -1.3501 H       1  UNL11       0.0364
     28 H          -0.8654    1.2394   -0.8197 H       1  UNL11       0.0364
     29 H          -2.2844    0.1073    0.8409 H       1  UNL11       0.0392
     30 H          -1.2047   -1.2855    0.9639 H       1  UNL11       0.0392
     31 H          -1.5252    4.1201    3.0639 H       1  UNL11       0.0661
     32 H          -0.2386    5.4125    4.7820 H       1  UNL11       0.0619
     33 H           1.7577    4.4540    5.7138 H       1  UNL11       0.0618
     34 H           2.5806    2.1851    5.0003 H       1  UNL11       0.0627
     35 H           0.9964   -0.9829    1.9537 H       1  UNL11       0.3013
     36 H           0.5857   -2.3066   -0.3437 H       1  UNL11       0.1728
     37 H           3.3190   -0.9550   -0.3724 H       1  UNL11       0.1731
     38 H           3.8996   -5.2550   -2.0761 H       1  UNL11       0.0626
     39 H           2.4823   -7.1851   -2.7983 H       1  UNL11       0.0646
     40 H          -0.9989   -4.9041   -1.8444 H       1  UNL11       0.0646
     41 H           0.3856   -3.0707   -1.1600 H       1  UNL11       0.0626
@<TRIPOS>BOND
     1     1     2    2
     2     2     3    1
     3     2    16   am
     4     3     4    1
     5     3    27    1
     6     3    28    1
     7     4     5    1
     8     4    29    1
     9     4    30    1
    10     5     6    2
    11     6     7    1
    12     7     8   ar
    13     8     9   ar
    14     8    31    1
    15     9    10   ar
    16     9    32    1
    17    10    11   ar
    18    10    33    1
    19    11    12   ar
    20    11    34    1
    21    12    13    1
    22    12     7   ar
    23    13    14    2
    24    13    15   am
    25    15     5    1
    26    15    35    1
    27    16    17    1
    28    16    36    1
    29    17    18   am
    30    17    37    1
    31    18    19    2
    32    18    20    1
    33    20    21   ar
    34    21    22   ar
    35    21    38    1
    36    22    23   ar
    37    22    39    1
    38    23    24    1
    39    23    25   ar
    40    25    26   ar
    41    25    40    1
    42    26    20   ar
    43    26    41    1
@<TRIPOS>MOLECULE
*****
 41 43 0 0 0
SMALL
GASTEIGER

@<TRIPOS>ATOM
      1 O           1.0545   -1.0646   -1.5818 O.2     1  UNL11      -0.2743
      2 C           0.7290   -0.2184   -0.6751 C.2     1  UNL11       0.2296
      3 C          -0.6815    0.1710   -0.6006 C.3     1  UNL11       0.0363
      4 C          -1.2134   -0.2031    0.7799 C.3     1  UNL11       0.0595
      5 C          -1.0486   -1.6641    0.9505 C.2     1  UNL11       0.2951
      6 N          -0.0352   -2.2732    0.3161 N.2     1  UNL11      -0.0454
      7 C           0.1653   -3.5964    0.4457 C.ar    1  UNL11       0.1903
      8 C           1.1964   -4.2286   -0.1989 C.ar    1  UNL11      -0.0100
      9 C           1.4077   -5.5861   -0.0719 C.ar    1  UNL11      -0.0576
     10 C           0.5331   -6.3021    0.7405 C.ar    1  UNL11      -0.0607
     11 C          -0.5190   -5.6766    1.4019 C.ar    1  UNL11      -0.0432
     12 C          -0.7025   -4.3214    1.2535 C.ar    1  UNL11       0.1121
     13 C          -1.7320   -3.6508    1.8867 C.2     1  UNL11       0.3368
     14 O          -2.4985   -4.3366    2.6109 O.2     1  UNL11      -0.2416
     15 N          -1.9250   -2.3232    1.7501 N.am    1  UNL11      -0.1702
     16 N           1.7571    0.2550    0.1622 N.am    1  UNL11      -0.2341
     17 N           1.3770    1.1784    1.1694 N.am    1  UNL11      -0.2304
     18 C           0.2506    2.0319    0.8968 C.2     1  UNL11       0.2601
     19 O          -0.3059    1.8753   -0.2378 O.2     1  UNL11      -0.2687
     20 C          -0.2388    3.0172    1.8462 C.ar    1  UNL11       0.0383
     21 C          -0.0740    2.7663    3.1935 C.ar    1  UNL11      -0.0469
     22 C          -0.5072    3.6600    4.1570 C.ar    1  UNL11      -0.0257
     23 C          -1.1186    4.8308    3.7748 C.ar    1  UNL11       0.1234
     24 F          -1.5467    5.7170    4.6843 F       1  UNL11      -0.2055
     25 C          -1.2938    5.1025    2.4387 C.ar    1  UNL11      -0.0257
     26 C          -0.8549    4.1981    1.5038 C.ar    1  UNL11      -0.0469
     27 H          -1.2493   -0.4225   -1.3501 H       1  UNL11       0.0364
     28 H          -0.8654    1.2394   -0.8197 H       1  UNL11       0.0364
     29 H          -0.6060    0.3328    1.5487 H       1  UNL11       0.0392
     30 H          -2.2509    0.1181    0.9411 H       1  UNL11       0.0392
     31 H           1.8713   -3.6521   -0.8304 H       1  UNL11       0.0661
     32 H           2.2063   -6.1202   -0.5599 H       1  UNL11       0.0619
     33 H           0.6986   -7.3584    0.8422 H       1  UNL11       0.0618
     34 H          -1.2054   -6.2298    2.0402 H       1  UNL11       0.0627
     35 H          -2.7005   -1.8073    2.2236 H       1  UNL11       0.3013
     36 H           2.7226   -0.0711    0.0283 H       1  UNL11       0.1728
     37 H           1.8561    1.2721    2.0785 H       1  UNL11       0.1731
     38 H           0.4059    1.8452    3.5030 H       1  UNL11       0.0626
     39 H          -0.3854    3.4792    5.2233 H       1  UNL11       0.0646
     40 H          -1.7726    6.0176    2.0826 H       1  UNL11       0.0646
     41 H          -1.0045    4.4320    0.4570 H       1  UNL11       0.0626
@<TRIPOS>BOND
     1     1     2    2
     2     2     3    1
     3     2    16   am
     4     3     4    1
     5     3    27    1
     6     3    28    1
     7     4     5    1
     8     4    29    1
     9     4    30    1
    10     5     6    2
    11     6     7    1
    12     7     8   ar
    13     8     9   ar
    14     8    31    1
    15     9    10   ar
    16     9    32    1
    17    10    11   ar
    18    10    33    1
    19    11    12   ar
    20    11    34    1
    21    12    13    1
    22    12     7   ar
    23    13    14    2
    24    13    15   am
    25    15     5    1
    26    15    35    1
    27    16    17    1
    28    16    36    1
    29    17    18   am
    30    17    37    1
    31    18    19    2
    32    18    20    1
    33    20    21   ar
    34    21    22   ar
    35    21    38    1
    36    22    23   ar
    37    22    39    1
    38    23    24    1
    39    23    25   ar
    40    25    26   ar
    41    25    40    1
    42    26    20   ar
    43    26    41    1
@<TRIPOS>MOLECULE
*****
 41 43 0 0 0
SMALL
GASTEIGER

@<TRIPOS>ATOM
      1 O           1.3482    0.0350   -1.7689 O.2     1  UNL11      -0.2743
      2 C           0.7290   -0.2184   -0.6751 C.2     1  UNL11       0.2296
      3 C          -0.6815    0.1710   -0.6006 C.3     1  UNL11       0.0363
      4 C          -1.2134   -0.2031    0.7799 C.3     1  UNL11       0.0595
      5 C          -0.4253    0.5407    1.7881 C.2     1  UNL11       0.2951
      6 N          -0.4451    1.8819    1.7551 N.2     1  UNL11      -0.0454
      7 C           0.2447    2.6053    2.6544 C.ar    1  UNL11       0.1903
      8 C           0.2324    3.9756    2.6288 C.ar    1  UNL11      -0.0100
      9 C           0.9386    4.7246    3.5472 C.ar    1  UNL11      -0.0576
     10 C           1.6714    4.0394    4.5121 C.ar    1  UNL11      -0.0607
     11 C           1.6954    2.6488    4.5526 C.ar    1  UNL11      -0.0432
     12 C           0.9806    1.9316    3.6216 C.ar    1  UNL11       0.1121
     13 C           0.9710    0.5493    3.6159 C.2     1  UNL11       0.3368
     14 O           1.6469   -0.0290    4.5054 O.2     1  UNL11      -0.2416
     15 N           0.2761   -0.1674    2.7094 N.am    1  UNL11      -0.1702
     16 N           1.4628   -0.8469    0.3490 N.am    1  UNL11      -0.2341
     17 N           2.8216   -1.1380    0.0654 N.am    1  UNL11      -0.2304
     18 C           3.4020   -2.2885    0.7065 C.2     1  UNL11       0.2601
     19 O           4.6270   -2.5151    0.4425 O.2     1  UNL11      -0.2687
     20 C           2.6532   -3.1506    1.6052 C.ar    1  UNL11       0.0383
     21 C           3.3067   -4.2214    2.1810 C.ar    1  UNL11      -0.0469
     22 C           2.6628   -5.0821    3.0523 C.ar    1  UNL11      -0.0257
     23 C           1.3386   -4.8758    3.3598 C.ar    1  UNL11       0.1234
     24 F           0.6885   -5.6907    4.2018 F       1  UNL11      -0.2055
     25 C           0.6667   -3.8160    2.7985 C.ar    1  UNL11      -0.0257
     26 C           1.3297   -2.9777    1.9369 C.ar    1  UNL11      -0.0469
     27 H          -1.2493   -0.4225   -1.3501 H       1  UNL11       0.0364
     28 H          -0.8654    1.2394   -0.8197 H       1  UNL11       0.0364
     29 H          -2.2844    0.1073    0.8409 H       1  UNL11       0.0392
     30 H          -1.2047   -1.2855    0.9639 H       1  UNL11       0.0392
     31 H          -0.3471    4.4951    1.8664 H       1  UNL11       0.0661
     32 H           0.9541    5.8020    3.5623 H       1  UNL11       0.0619
     33 H           2.2191    4.6218    5.2293 H       1  UNL11       0.0618
     34 H           2.2644    2.1065    5.3053 H       1  UNL11       0.0627
     35 H           0.2630   -1.2120    2.6960 H       1  UNL11       0.3013
     36 H           1.0114   -1.0687    1.2454 H       1  UNL11       0.1728
     37 H           3.4125   -0.5785   -0.5692 H       1  UNL11       0.1731
     38 H           4.3502   -4.3916    1.9429 H       1  UNL11       0.0626
     39 H           3.1620   -5.9310    3.5159 H       1  UNL11       0.0646
     40 H          -0.3846   -3.6078    3.0100 H       1  UNL11       0.0646
     41 H           0.7805   -2.1501    1.5054 H       1  UNL11       0.0626
@<TRIPOS>BOND
     1     1     2    2
     2     2     3    1
     3     2    16   am
     4     3     4    1
     5     3    27    1
     6     3    28    1
     7     4     5    1
     8     4    29    1
     9     4    30    1
    10     5     6    2
    11     6     7    1
    12     7     8   ar
    13     8     9   ar
    14     8    31    1
    15     9    10   ar
    16     9    32    1
    17    10    11   ar
    18    10    33    1
    19    11    12   ar
    20    11    34    1
    21    12    13    1
    22    12     7   ar
    23    13    14    2
    24    13    15   am
    25    15     5    1
    26    15    35    1
    27    16    17    1
    28    16    36    1
    29    17    18   am
    30    17    37    1
    31    18    19    2
    32    18    20    1
    33    20    21   ar
    34    21    22   ar
    35    21    38    1
    36    22    23   ar
    37    22    39    1
    38    23    24    1
    39    23    25   ar
    40    25    26   ar
    41    25    40    1
    42    26    20   ar
    43    26    41    1
@<TRIPOS>MOLECULE
*****
 41 43 0 0 0
SMALL
GASTEIGER

@<TRIPOS>ATOM
      1 O           1.3482    0.0350   -1.7689 O.2     1  UNL11      -0.2743
      2 C           0.7290   -0.2184   -0.6751 C.2     1  UNL11       0.2296
      3 C          -0.6815    0.1710   -0.6006 C.3     1  UNL11       0.0363
      4 C          -1.2134   -0.2031    0.7799 C.3     1  UNL11       0.0595
      5 C          -0.4253    0.5407    1.7881 C.2     1  UNL11       0.2951
      6 N          -0.4451    1.8819    1.7551 N.2     1  UNL11      -0.0454
      7 C           0.2447    2.6053    2.6544 C.ar    1  UNL11       0.1903
      8 C           0.2324    3.9756    2.6288 C.ar    1  UNL11      -0.0100
      9 C           0.9386    4.7246    3.5472 C.ar    1  UNL11      -0.0576
     10 C           1.6714    4.0394    4.5121 C.ar    1  UNL11      -0.0607
     11 C           1.6954    2.6488    4.5526 C.ar    1  UNL11      -0.0432
     12 C           0.9806    1.9316    3.6216 C.ar    1  UNL11       0.1121
     13 C           0.9710    0.5493    3.6159 C.2     1  UNL11       0.3368
     14 O           1.6469   -0.0290    4.5054 O.2     1  UNL11      -0.2416
     15 N           0.2761   -0.1674    2.7094 N.am    1  UNL11      -0.1702
     16 N           1.4628   -0.8469    0.3490 N.am    1  UNL11      -0.2341
     17 N           0.7586   -1.1338    1.5462 N.am    1  UNL11      -0.2304
     18 C           1.5082   -1.1292    2.7749 C.2     1  UNL11       0.2601
     19 O           2.7493   -0.8644    2.6698 O.2     1  UNL11      -0.2687
     20 C           0.9037   -1.4053    4.0672 C.ar    1  UNL11       0.0383
     21 C           1.7074   -1.3616    5.1885 C.ar    1  UNL11      -0.0469
     22 C           1.2029   -1.6059    6.4536 C.ar    1  UNL11      -0.0257
     23 C          -0.1310   -1.9007    6.6102 C.ar    1  UNL11       0.1234
     24 F          -0.6493   -2.1396    7.8226 F       1  UNL11      -0.2055
     25 C          -0.9510   -1.9500    5.5081 C.ar    1  UNL11      -0.0257
     26 C          -0.4242   -1.7039    4.2644 C.ar    1  UNL11      -0.0469
     27 H          -1.2493   -0.4225   -1.3501 H       1  UNL11       0.0364
     28 H          -0.8654    1.2394   -0.8197 H       1  UNL11       0.0364
     29 H          -2.2844    0.1073    0.8409 H       1  UNL11       0.0392
     30 H          -1.2047   -1.2855    0.9639 H       1  UNL11       0.0392
     31 H          -0.3471    4.4951    1.8664 H       1  UNL11       0.0661
     32 H           0.9541    5.8020    3.5623 H       1  UNL11       0.0619
     33 H           2.2191    4.6218    5.2293 H       1  UNL11       0.0618
     34 H           2.2644    2.1065    5.3053 H       1  UNL11       0.0627
     35 H           0.2630   -1.2120    2.6960 H       1  UNL11       0.3013
     36 H           2.4547   -1.0756    0.2069 H       1  UNL11       0.1728
     37 H          -0.2512   -1.3425    1.5872 H       1  UNL11       0.1731
     38 H           2.7601   -1.1312    5.0735 H       1  UNL11       0.0626
     39 H           1.8213   -1.5754    7.3488 H       1  UNL11       0.0646
     40 H          -2.0169   -2.1789    5.5780 H       1  UNL11       0.0646
     41 H          -1.0883   -1.7493    3.4101 H       1  UNL11       0.0626
@<TRIPOS>BOND
     1     1     2    2
     2     2     3    1
     3     2    16   am
     4     3     4    1
     5     3    27    1
     6     3    28    1
     7     4     5    1
     8     4    29    1
     9     4    30    1
    10     5     6    2
    11     6     7    1
    12     7     8   ar
    13     8     9   ar
    14     8    31    1
    15     9    10   ar
    16     9    32    1
    17    10    11   ar
    18    10    33    1
    19    11    12   ar
    20    11    34    1
    21    12    13    1
    22    12     7   ar
    23    13    14    2
    24    13    15   am
    25    15     5    1
    26    15    35    1
    27    16    17    1
    28    16    36    1
    29    17    18   am
    30    17    37    1
    31    18    19    2
    32    18    20    1
    33    20    21   ar
    34    21    22   ar
    35    21    38    1
    36    22    23   ar
    37    22    39    1
    38    23    24    1
    39    23    25   ar
    40    25    26   ar
    41    25    40    1
    42    26    20   ar
    43    26    41    1
@<TRIPOS>MOLECULE
*****
 41 43 0 0 0
SMALL
GASTEIGER

@<TRIPOS>ATOM
      1 O           1.2386   -0.7698    0.3643 O.2     1  UNL11      -0.2743
      2 C           0.7290   -0.2184   -0.6751 C.2     1  UNL11       0.2296
      3 C          -0.6815    0.1710   -0.6006 C.3     1  UNL11       0.0363
      4 C          -1.2134   -0.2031    0.7799 C.3     1  UNL11       0.0595
      5 C          -0.4253    0.5407    1.7881 C.2     1  UNL11       0.2951
      6 N           0.2655   -0.1563    2.7032 N.2     1  UNL11      -0.0454
      7 C           1.0057    0.4702    3.6345 C.ar    1  UNL11       0.1903
      8 C           1.7141   -0.2320    4.5745 C.ar    1  UNL11      -0.0100
      9 C           2.4747    0.4038    5.5340 C.ar    1  UNL11      -0.0576
     10 C           2.5024    1.7954    5.5179 C.ar    1  UNL11      -0.0607
     11 C           1.7893    2.5241    4.5712 C.ar    1  UNL11      -0.0432
     12 C           1.0398    1.8594    3.6285 C.ar    1  UNL11       0.1121
     13 C           0.3118    2.5344    2.6667 C.2     1  UNL11       0.3368
     14 O           0.3653    3.7911    2.6890 O.2     1  UNL11      -0.2416
     15 N          -0.4280    1.8969    1.7369 N.am    1  UNL11      -0.1702
     16 N           1.5729   -0.0392   -1.7877 N.am    1  UNL11      -0.2341
     17 N           0.9974    0.5862   -2.9232 N.am    1  UNL11      -0.2304
     18 C           1.8659    1.3708   -3.7607 C.2     1  UNL11       0.2601
     19 O           3.0853    1.4304   -3.3985 O.2     1  UNL11      -0.2687
     20 C           1.3997    2.0593   -4.9524 C.ar    1  UNL11       0.0383
     21 C           2.0343    3.2274   -5.3241 C.ar    1  UNL11      -0.0469
     22 C           1.6520    3.9351   -6.4500 C.ar    1  UNL11      -0.0257
     23 C           0.6151    3.4731   -7.2259 C.ar    1  UNL11       0.1234
     24 F           0.2235    4.1351   -8.3232 F       1  UNL11      -0.2055
     25 C          -0.0321    2.3120   -6.8757 C.ar    1  UNL11      -0.0257
     26 C           0.3674    1.6299   -5.7533 C.ar    1  UNL11      -0.0469
     27 H          -1.2493   -0.4225   -1.3501 H       1  UNL11       0.0364
     28 H          -0.8654    1.2394   -0.8197 H       1  UNL11       0.0364
     29 H          -2.2844    0.1073    0.8409 H       1  UNL11       0.0392
     30 H          -1.2047   -1.2855    0.9639 H       1  UNL11       0.0392
     31 H           1.6809   -1.3209    4.5717 H       1  UNL11       0.0661
     32 H           3.0466   -0.1108    6.2886 H       1  UNL11       0.0619
     33 H           3.0966    2.2911    6.2627 H       1  UNL11       0.0618
     34 H           1.8079    3.6121    4.5515 H       1  UNL11       0.0627
     35 H          -0.9823    2.3977    1.0065 H       1  UNL11       0.3013
     36 H           2.5509   -0.3531   -1.7491 H       1  UNL11       0.1728
     37 H           0.0013    0.5107   -3.1820 H       1  UNL11       0.1731
     38 H           2.8517    3.5989   -4.7172 H       1  UNL11       0.0626
     39 H           2.1409    4.8573   -6.7584 H       1  UNL11       0.0646
     40 H          -0.8607    1.9022   -7.4578 H       1  UNL11       0.0646
     41 H          -0.1575    0.7183   -5.4955 H       1  UNL11       0.0626
@<TRIPOS>BOND
     1     1     2    2
     2     2     3    1
     3     2    16   am
     4     3     4    1
     5     3    27    1
     6     3    28    1
     7     4     5    1
     8     4    29    1
     9     4    30    1
    10     5     6    2
    11     6     7    1
    12     7     8   ar
    13     8     9   ar
    14     8    31    1
    15     9    10   ar
    16     9    32    1
    17    10    11   ar
    18    10    33    1
    19    11    12   ar
    20    11    34    1
    21    12    13    1
    22    12     7   ar
    23    13    14    2
    24    13    15   am
    25    15     5    1
    26    15    35    1
    27    16    17    1
    28    16    36    1
    29    17    18   am
    30    17    37    1
    31    18    19    2
    32    18    20    1
    33    20    21   ar
    34    21    22   ar
    35    21    38    1
    36    22    23   ar
    37    22    39    1
    38    23    24    1
    39    23    25   ar
    40    25    26   ar
    41    25    40    1
    42    26    20   ar
    43    26    41    1
@<TRIPOS>MOLECULE
*****
 41 43 0 0 0
SMALL
GASTEIGER

@<TRIPOS>ATOM
      1 O           1.3482    0.0350   -1.7689 O.2     1  UNL11      -0.2743
      2 C           0.7290   -0.2184   -0.6751 C.2     1  UNL11       0.2296
      3 C          -0.6815    0.1710   -0.6006 C.3     1  UNL11       0.0363
      4 C          -1.2134   -0.2031    0.7799 C.3     1  UNL11       0.0595
      5 C          -0.4253    0.5407    1.7881 C.2     1  UNL11       0.2951
      6 N          -0.4451    1.8819    1.7551 N.2     1  UNL11      -0.0454
      7 C           0.2447    2.6053    2.6544 C.ar    1  UNL11       0.1903
      8 C           0.2324    3.9756    2.6288 C.ar    1  UNL11      -0.0100
      9 C           0.9386    4.7246    3.5472 C.ar    1  UNL11      -0.0576
     10 C           1.6714    4.0394    4.5121 C.ar    1  UNL11      -0.0607
     11 C           1.6954    2.6488    4.5526 C.ar    1  UNL11      -0.0432
     12 C           0.9806    1.9316    3.6216 C.ar    1  UNL11       0.1121
     13 C           0.9710    0.5493    3.6159 C.2     1  UNL11       0.3368
     14 O           1.6469   -0.0290    4.5054 O.2     1  UNL11      -0.2416
     15 N           0.2761   -0.1674    2.7094 N.am    1  UNL11      -0.1702
     16 N           1.4628   -0.8469    0.3490 N.am    1  UNL11      -0.2341
     17 N           0.7586   -1.1338    1.5462 N.am    1  UNL11      -0.2304
     18 C           1.5082   -1.1292    2.7749 C.2     1  UNL11       0.2601
     19 O           0.8506   -1.4041    3.8302 O.2     1  UNL11      -0.2687
     20 C           2.9298   -0.8334    2.8289 C.ar    1  UNL11       0.0383
     21 C           3.5598   -0.8695    4.0566 C.ar    1  UNL11      -0.0469
     22 C           4.9120   -0.6066    4.1871 C.ar    1  UNL11      -0.0257
     23 C           5.6574   -0.3004    3.0729 C.ar    1  UNL11       0.1234
     24 F           6.9691   -0.0433    3.1670 F       1  UNL11      -0.2055
     25 C           5.0519   -0.2583    1.8395 C.ar    1  UNL11      -0.0257
     26 C           3.7086   -0.5230    1.7387 C.ar    1  UNL11      -0.0469
     27 H          -1.2493   -0.4225   -1.3501 H       1  UNL11       0.0364
     28 H          -0.8654    1.2394   -0.8197 H       1  UNL11       0.0364
     29 H          -2.2844    0.1073    0.8409 H       1  UNL11       0.0392
     30 H          -1.2047   -1.2855    0.9639 H       1  UNL11       0.0392
     31 H          -0.3471    4.4951    1.8664 H       1  UNL11       0.0661
     32 H           0.9541    5.8020    3.5623 H       1  UNL11       0.0619
     33 H           2.2191    4.6218    5.2293 H       1  UNL11       0.0618
     34 H           2.2644    2.1065    5.3053 H       1  UNL11       0.0627
     35 H           0.2630   -1.2120    2.6960 H       1  UNL11       0.3013
     36 H           2.4547   -1.0756    0.2069 H       1  UNL11       0.1728
     37 H          -0.2512   -1.3425    1.5872 H       1  UNL11       0.1731
     38 H           2.9791   -1.1089    4.9398 H       1  UNL11       0.0626
     39 H           5.4254   -0.6309    5.1465 H       1  UNL11       0.0646
     40 H           5.5986   -0.0209    0.9240 H       1  UNL11       0.0646
     41 H           3.2522   -0.4829    0.7574 H       1  UNL11       0.0626
@<TRIPOS>BOND
     1     1     2    2
     2     2     3    1
     3     2    16   am
     4     3     4    1
     5     3    27    1
     6     3    28    1
     7     4     5    1
     8     4    29    1
     9     4    30    1
    10     5     6    2
    11     6     7    1
    12     7     8   ar
    13     8     9   ar
    14     8    31    1
    15     9    10   ar
    16     9    32    1
    17    10    11   ar
    18    10    33    1
    19    11    12   ar
    20    11    34    1
    21    12    13    1
    22    12     7   ar
    23    13    14    2
    24    13    15   am
    25    15     5    1
    26    15    35    1
    27    16    17    1
    28    16    36    1
    29    17    18   am
    30    17    37    1
    31    18    19    2
    32    18    20    1
    33    20    21   ar
    34    21    22   ar
    35    21    38    1
    36    22    23   ar
    37    22    39    1
    38    23    24    1
    39    23    25   ar
    40    25    26   ar
    41    25    40    1
    42    26    20   ar
    43    26    41    1
@<TRIPOS>MOLECULE
*****
 41 43 0 0 0
SMALL
GASTEIGER

@<TRIPOS>ATOM
      1 O           1.5815    0.7133   -0.8969 O.2     1  UNL11      -0.2743
      2 C           0.7290   -0.2184   -0.6751 C.2     1  UNL11       0.2296
      3 C          -0.6815    0.1710   -0.6006 C.3     1  UNL11       0.0363
      4 C          -1.2134   -0.2031    0.7799 C.3     1  UNL11       0.0595
      5 C          -0.4253    0.5407    1.7881 C.2     1  UNL11       0.2951
      6 N          -0.8580    1.7505    2.1747 N.2     1  UNL11      -0.0454
      7 C          -0.1851    2.4632    3.0951 C.ar    1  UNL11       0.1903
      8 C          -0.6175    3.7004    3.4961 C.ar    1  UNL11      -0.0100
      9 C           0.0682    4.4381    4.4390 C.ar    1  UNL11      -0.0576
     10 C           1.2248    3.8816    4.9776 C.ar    1  UNL11      -0.0607
     11 C           1.6784    2.6272    4.5819 C.ar    1  UNL11      -0.0432
     12 C           0.9716    1.9177    3.6389 C.ar    1  UNL11       0.1121
     13 C           1.3785    0.6684    3.2095 C.2     1  UNL11       0.3368
     14 O           2.4289    0.2036    3.7224 O.2     1  UNL11      -0.2416
     15 N           0.6968   -0.0386    2.2855 N.am    1  UNL11      -0.1702
     16 N           1.2292   -1.5259   -0.5251 N.am    1  UNL11      -0.2341
     17 N           0.2713   -2.5464   -0.2957 N.am    1  UNL11      -0.2304
     18 C           0.6834   -3.6794    0.4904 C.2     1  UNL11       0.2601
     19 O          -0.1946   -4.5847    0.6667 O.2     1  UNL11      -0.2687
     20 C           2.0164   -3.8027    1.0557 C.ar    1  UNL11       0.0383
     21 C           2.1641   -4.4983    2.2387 C.ar    1  UNL11      -0.0469
     22 C           3.4020   -4.6642    2.8341 C.ar    1  UNL11      -0.0257
     23 C           4.5206   -4.1271    2.2418 C.ar    1  UNL11       0.1234
     24 F           5.7333   -4.2729    2.7931 F       1  UNL11      -0.2055
     25 C           4.3984   -3.4300    1.0633 C.ar    1  UNL11      -0.0257
     26 C           3.1581   -3.2801    0.4944 C.ar    1  UNL11      -0.0469
     27 H          -1.2493   -0.4225   -1.3501 H       1  UNL11       0.0364
     28 H          -0.8654    1.2394   -0.8197 H       1  UNL11       0.0364
     29 H          -2.2844    0.1073    0.8409 H       1  UNL11       0.0392
     30 H          -1.2047   -1.2855    0.9639 H       1  UNL11       0.0392
     31 H          -1.5252    4.1201    3.0639 H       1  UNL11       0.0661
     32 H          -0.2386    5.4125    4.7820 H       1  UNL11       0.0619
     33 H           1.7577    4.4540    5.7138 H       1  UNL11       0.0618
     34 H           2.5806    2.1851    5.0003 H       1  UNL11       0.0627
     35 H           0.9964   -0.9829    1.9537 H       1  UNL11       0.3013
     36 H           2.2401   -1.7015   -0.5858 H       1  UNL11       0.1728
     37 H          -0.6956   -2.5232   -0.6554 H       1  UNL11       0.1731
     38 H           1.2871   -4.9238    2.7126 H       1  UNL11       0.0626
     39 H           3.5374   -5.2098    3.7662 H       1  UNL11       0.0646
     40 H           5.2550   -2.9844    0.5523 H       1  UNL11       0.0646
     41 H           3.0850   -2.7262   -0.4333 H       1  UNL11       0.0626
@<TRIPOS>BOND
     1     1     2    2
     2     2     3    1
     3     2    16   am
     4     3     4    1
     5     3    27    1
     6     3    28    1
     7     4     5    1
     8     4    29    1
     9     4    30    1
    10     5     6    2
    11     6     7    1
    12     7     8   ar
    13     8     9   ar
    14     8    31    1
    15     9    10   ar
    16     9    32    1
    17    10    11   ar
    18    10    33    1
    19    11    12   ar
    20    11    34    1
    21    12    13    1
    22    12     7   ar
    23    13    14    2
    24    13    15   am
    25    15     5    1
    26    15    35    1
    27    16    17    1
    28    16    36    1
    29    17    18   am
    30    17    37    1
    31    18    19    2
    32    18    20    1
    33    20    21   ar
    34    21    22   ar
    35    21    38    1
    36    22    23   ar
    37    22    39    1
    38    23    24    1
    39    23    25   ar
    40    25    26   ar
    41    25    40    1
    42    26    20   ar
    43    26    41    1
@<TRIPOS>MOLECULE
*****
 41 43 0 0 0
SMALL
GASTEIGER

@<TRIPOS>ATOM
      1 O           1.0003   -1.4627   -0.5266 O.2     1  UNL11      -0.2743
      2 C           0.7290   -0.2184   -0.6751 C.2     1  UNL11       0.2296
      3 C          -0.6815    0.1710   -0.6006 C.3     1  UNL11       0.0363
      4 C          -1.2134   -0.2031    0.7799 C.3     1  UNL11       0.0595
      5 C          -0.4253    0.5407    1.7881 C.2     1  UNL11       0.2951
      6 N          -0.7091    0.3567    3.0866 N.2     1  UNL11      -0.0454
      7 C          -0.0165    0.9998    4.0429 C.ar    1  UNL11       0.1903
      8 C          -0.2990    0.8201    5.3720 C.ar    1  UNL11      -0.0100
      9 C           0.4063    1.4774    6.3588 C.ar    1  UNL11      -0.0576
     10 C           1.4255    2.3373    5.9599 C.ar    1  UNL11      -0.0607
     11 C           1.7256    2.5318    4.6153 C.ar    1  UNL11      -0.0432
     12 C           1.0027    1.8616    3.6560 C.ar    1  UNL11       0.1121
     13 C           1.2585    2.0193    2.3068 C.2     1  UNL11       0.3368
     14 O           2.1880    2.8059    1.9910 O.2     1  UNL11      -0.2416
     15 N           0.5579    1.3700    1.3550 N.am    1  UNL11      -0.1702
     16 N           1.8116    0.6545   -0.8948 N.am    1  UNL11      -0.2341
     17 N           3.1013    0.0654   -0.9298 N.am    1  UNL11      -0.2304
     18 C           3.1976   -1.2951   -1.3895 C.2     1  UNL11       0.2601
     19 O           4.3666   -1.7999   -1.3961 O.2     1  UNL11      -0.2687
     20 C           2.0428   -2.0637   -1.8222 C.ar    1  UNL11       0.0383
     21 C           2.2399   -3.3671   -2.2316 C.ar    1  UNL11      -0.0469
     22 C           1.1890   -4.1637   -2.6505 C.ar    1  UNL11      -0.0257
     23 C          -0.0885   -3.6552   -2.6635 C.ar    1  UNL11       0.1234
     24 F          -1.1270   -4.4028   -3.0615 F       1  UNL11      -0.2055
     25 C          -0.3095   -2.3598   -2.2602 C.ar    1  UNL11      -0.0257
     26 C           0.7515   -1.5913   -1.8498 C.ar    1  UNL11      -0.0469
     27 H          -1.2493   -0.4225   -1.3501 H       1  UNL11       0.0364
     28 H          -0.8654    1.2394   -0.8197 H       1  UNL11       0.0364
     29 H          -2.2844    0.1073    0.8409 H       1  UNL11       0.0392
     30 H          -1.2047   -1.2855    0.9639 H       1  UNL11       0.0392
     31 H          -1.1002    0.1428    5.6658 H       1  UNL11       0.0661
     32 H           0.2167    1.3629    7.4134 H       1  UNL11       0.0619
     33 H           1.9770    2.8472    6.7276 H       1  UNL11       0.0618
     34 H           2.5224    3.2010    4.2963 H       1  UNL11       0.0627
     35 H           0.7428    1.4830    0.3329 H       1  UNL11       0.3013
     36 H           1.6452    1.6608   -1.0219 H       1  UNL11       0.1728
     37 H           3.9669    0.5517   -0.6486 H       1  UNL11       0.1731
     38 H           3.2440   -3.7750   -2.2255 H       1  UNL11       0.0626
     39 H           1.3255   -5.1932   -2.9762 H       1  UNL11       0.0646
     40 H          -1.3043   -1.9084   -2.2512 H       1  UNL11       0.0646
     41 H           0.5544   -0.5732   -1.5377 H       1  UNL11       0.0626
@<TRIPOS>BOND
     1     1     2    2
     2     2     3    1
     3     2    16   am
     4     3     4    1
     5     3    27    1
     6     3    28    1
     7     4     5    1
     8     4    29    1
     9     4    30    1
    10     5     6    2
    11     6     7    1
    12     7     8   ar
    13     8     9   ar
    14     8    31    1
    15     9    10   ar
    16     9    32    1
    17    10    11   ar
    18    10    33    1
    19    11    12   ar
    20    11    34    1
    21    12    13    1
    22    12     7   ar
    23    13    14    2
    24    13    15   am
    25    15     5    1
    26    15    35    1
    27    16    17    1
    28    16    36    1
    29    17    18   am
    30    17    37    1
    31    18    19    2
    32    18    20    1
    33    20    21   ar
    34    21    22   ar
    35    21    38    1
    36    22    23   ar
    37    22    39    1
    38    23    24    1
    39    23    25   ar
    40    25    26   ar
    41    25    40    1
    42    26    20   ar
    43    26    41    1
@<TRIPOS>MOLECULE
*****
 41 43 0 0 0
SMALL
GASTEIGER

@<TRIPOS>ATOM
      1 O           1.4909    0.4868   -1.4275 O.2     1  UNL11      -0.2743
      2 C           0.7290   -0.2184   -0.6751 C.2     1  UNL11       0.2296
      3 C          -0.6815    0.1710   -0.6006 C.3     1  UNL11       0.0363
      4 C          -1.2134   -0.2031    0.7799 C.3     1  UNL11       0.0595
      5 C          -2.6421    0.1795    0.8361 C.2     1  UNL11       0.2951
      6 N          -3.5624   -0.7227    0.4625 N.2     1  UNL11      -0.0454
      7 C          -4.8739   -0.4297    0.5046 C.ar    1  UNL11       0.1903
      8 C          -5.8221   -1.3434    0.1241 C.ar    1  UNL11      -0.0100
      9 C          -7.1695   -1.0496    0.1632 C.ar    1  UNL11      -0.0576
     10 C          -7.5414    0.2162    0.6067 C.ar    1  UNL11      -0.0607
     11 C          -6.5924    1.1560    0.9965 C.ar    1  UNL11      -0.0432
     12 C          -5.2567    0.8315    0.9448 C.ar    1  UNL11       0.1121
     13 C          -4.2731    1.7277    1.3191 C.2     1  UNL11       0.3368
     14 O          -4.6538    2.8600    1.7134 O.2     1  UNL11      -0.2416
     15 N          -2.9600    1.4245    1.2730 N.am    1  UNL11      -0.1702
     16 N           1.3198   -1.2993    0.0067 N.am    1  UNL11      -0.2341
     17 N           0.4597   -2.0781    0.8223 N.am    1  UNL11      -0.2304
     18 C           1.0326   -2.7009    1.9865 C.2     1  UNL11       0.2601
     19 O           0.2381   -3.4044    2.6904 O.2     1  UNL11      -0.2687
     20 C           2.4308   -2.5501    2.3527 C.ar    1  UNL11       0.0383
     21 C           3.3536   -2.3525    1.3455 C.ar    1  UNL11      -0.0469
     22 C           4.7012   -2.1934    1.6161 C.ar    1  UNL11      -0.0257
     23 C           5.1442   -2.2311    2.9173 C.ar    1  UNL11       0.1234
     24 F           6.4425   -2.0779    3.2111 F       1  UNL11      -0.2055
     25 C           4.2437   -2.4267    3.9373 C.ar    1  UNL11      -0.0257
     26 C           2.9123   -2.5821    3.6405 C.ar    1  UNL11      -0.0469
     27 H          -1.2493   -0.4225   -1.3501 H       1  UNL11       0.0364
     28 H          -0.8654    1.2394   -0.8197 H       1  UNL11       0.0364
     29 H          -1.1182   -1.3085    0.9065 H       1  UNL11       0.0392
     30 H          -0.6330    0.2428    1.5983 H       1  UNL11       0.0392
     31 H          -5.5125   -2.3296   -0.2202 H       1  UNL11       0.0661
     32 H          -7.9456   -1.7393   -0.1255 H       1  UNL11       0.0619
     33 H          -8.5904    0.4447    0.6403 H       1  UNL11       0.0618
     34 H          -6.8761    2.1469    1.3463 H       1  UNL11       0.0627
     35 H          -2.2090    2.0949    1.5527 H       1  UNL11       0.3013
     36 H           2.3237   -1.4910   -0.1022 H       1  UNL11       0.1728
     37 H          -0.5443   -2.2215    0.6319 H       1  UNL11       0.1731
     38 H           3.0128   -2.3227    0.3171 H       1  UNL11       0.0626
     39 H           5.4429   -2.0364    0.8351 H       1  UNL11       0.0646
     40 H           4.5434   -2.4642    4.9871 H       1  UNL11       0.0646
     41 H           2.2209   -2.7363    4.4596 H       1  UNL11       0.0626
@<TRIPOS>BOND
     1     1     2    2
     2     2     3    1
     3     2    16   am
     4     3     4    1
     5     3    27    1
     6     3    28    1
     7     4     5    1
     8     4    29    1
     9     4    30    1
    10     5     6    2
    11     6     7    1
    12     7     8   ar
    13     8     9   ar
    14     8    31    1
    15     9    10   ar
    16     9    32    1
    17    10    11   ar
    18    10    33    1
    19    11    12   ar
    20    11    34    1
    21    12    13    1
    22    12     7   ar
    23    13    14    2
    24    13    15   am
    25    15     5    1
    26    15    35    1
    27    16    17    1
    28    16    36    1
    29    17    18   am
    30    17    37    1
    31    18    19    2
    32    18    20    1
    33    20    21   ar
    34    21    22   ar
    35    21    38    1
    36    22    23   ar
    37    22    39    1
    38    23    24    1
    39    23    25   ar
    40    25    26   ar
    41    25    40    1
    42    26    20   ar
    43    26    41    1
@<TRIPOS>MOLECULE
*****
 41 43 0 0 0
SMALL
GASTEIGER

@<TRIPOS>ATOM
      1 O           1.0545   -1.0646   -1.5818 O.2     1  UNL11      -0.2743
      2 C           0.7290   -0.2184   -0.6751 C.2     1  UNL11       0.2296
      3 C          -0.6815    0.1710   -0.6006 C.3     1  UNL11       0.0363
      4 C          -1.2134   -0.2031    0.7799 C.3     1  UNL11       0.0595
      5 C          -0.4253    0.5407    1.7881 C.2     1  UNL11       0.2951
      6 N          -0.4451    1.8819    1.7551 N.2     1  UNL11      -0.0454
      7 C           0.2447    2.6053    2.6544 C.ar    1  UNL11       0.1903
      8 C           0.2324    3.9756    2.6288 C.ar    1  UNL11      -0.0100
      9 C           0.9386    4.7246    3.5472 C.ar    1  UNL11      -0.0576
     10 C           1.6714    4.0394    4.5121 C.ar    1  UNL11      -0.0607
     11 C           1.6954    2.6488    4.5526 C.ar    1  UNL11      -0.0432
     12 C           0.9806    1.9316    3.6216 C.ar    1  UNL11       0.1121
     13 C           0.9710    0.5493    3.6159 C.2     1  UNL11       0.3368
     14 O           1.6469   -0.0290    4.5054 O.2     1  UNL11      -0.2416
     15 N           0.2761   -0.1674    2.7094 N.am    1  UNL11      -0.1702
     16 N           1.7571    0.2550    0.1622 N.am    1  UNL11      -0.2341
     17 N           1.3770    1.1784    1.1694 N.am    1  UNL11      -0.2304
     18 C           2.3518    2.1562    1.5758 C.2     1  UNL11       0.2601
     19 O           1.9852    2.9618    2.4914 O.2     1  UNL11      -0.2687
     20 C           3.6798    2.2346    0.9910 C.ar    1  UNL11       0.0383
     21 C           4.0147    1.3300    0.0037 C.ar    1  UNL11      -0.0469
     22 C           5.2570    1.3465   -0.6054 C.ar    1  UNL11      -0.0257
     23 C           6.1896    2.2831   -0.2262 C.ar    1  UNL11       0.1234
     24 F           7.4002    2.3258   -0.7992 F       1  UNL11      -0.2055
     25 C           5.8788    3.1944    0.7550 C.ar    1  UNL11      -0.0257
     26 C           4.6390    3.1552    1.3430 C.ar    1  UNL11      -0.0469
     27 H          -1.2493   -0.4225   -1.3501 H       1  UNL11       0.0364
     28 H          -0.8654    1.2394   -0.8197 H       1  UNL11       0.0364
     29 H          -2.2844    0.1073    0.8409 H       1  UNL11       0.0392
     30 H          -1.2047   -1.2855    0.9639 H       1  UNL11       0.0392
     31 H          -0.3471    4.4951    1.8664 H       1  UNL11       0.0661
     32 H           0.9541    5.8020    3.5623 H       1  UNL11       0.0619
     33 H           2.2191    4.6218    5.2293 H       1  UNL11       0.0618
     34 H           2.2644    2.1065    5.3053 H       1  UNL11       0.0627
     35 H           0.2630   -1.2120    2.6960 H       1  UNL11       0.3013
     36 H           2.7226   -0.0711    0.0283 H       1  UNL11       0.1728
     37 H           0.4500    1.1906    1.6225 H       1  UNL11       0.1731
     38 H           3.2857    0.5878   -0.3001 H       1  UNL11       0.0626
     39 H           5.5384    0.6416   -1.3855 H       1  UNL11       0.0646
     40 H           6.5831    3.9585    1.0921 H       1  UNL11       0.0646
     41 H           4.4162    3.8817    2.1146 H       1  UNL11       0.0626
@<TRIPOS>BOND
     1     1     2    2
     2     2     3    1
     3     2    16   am
     4     3     4    1
     5     3    27    1
     6     3    28    1
     7     4     5    1
     8     4    29    1
     9     4    30    1
    10     5     6    2
    11     6     7    1
    12     7     8   ar
    13     8     9   ar
    14     8    31    1
    15     9    10   ar
    16     9    32    1
    17    10    11   ar
    18    10    33    1
    19    11    12   ar
    20    11    34    1
    21    12    13    1
    22    12     7   ar
    23    13    14    2
    24    13    15   am
    25    15     5    1
    26    15    35    1
    27    16    17    1
    28    16    36    1
    29    17    18   am
    30    17    37    1
    31    18    19    2
    32    18    20    1
    33    20    21   ar
    34    21    22   ar
    35    21    38    1
    36    22    23   ar
    37    22    39    1
    38    23    24    1
    39    23    25   ar
    40    25    26   ar
    41    25    40    1
    42    26    20   ar
    43    26    41    1
@<TRIPOS>MOLECULE
*****
 41 43 0 0 0
SMALL
GASTEIGER

@<TRIPOS>ATOM
      1 O           1.0003   -1.4627   -0.5266 O.2     1  UNL11      -0.2743
      2 C           0.7290   -0.2184   -0.6751 C.2     1  UNL11       0.2296
      3 C          -0.6815    0.1710   -0.6006 C.3     1  UNL11       0.0363
      4 C          -1.2134   -0.2031    0.7799 C.3     1  UNL11       0.0595
      5 C          -0.4253    0.5407    1.7881 C.2     1  UNL11       0.2951
      6 N           0.5505    1.3578    1.3634 N.2     1  UNL11      -0.0454
      7 C           1.2890    2.0643    2.2371 C.ar    1  UNL11       0.1903
      8 C           2.2889    2.9008    1.8141 C.ar    1  UNL11      -0.0100
      9 C           3.0517    3.6279    2.7046 C.ar    1  UNL11      -0.0576
     10 C           2.7715    3.4858    4.0606 C.ar    1  UNL11      -0.0607
     11 C           1.7604    2.6410    4.5076 C.ar    1  UNL11      -0.0432
     12 C           1.0186    1.9294    3.5935 C.ar    1  UNL11       0.1121
     13 C           0.0039    1.0756    3.9836 C.2     1  UNL11       0.3368
     14 O          -0.2152    0.9774    5.2184 O.2     1  UNL11      -0.2416
     15 N          -0.7310    0.3709    3.0995 N.am    1  UNL11      -0.1702
     16 N           1.8116    0.6545   -0.8948 N.am    1  UNL11      -0.2341
     17 N           3.1013    0.0654   -0.9298 N.am    1  UNL11      -0.2304
     18 C           3.1976   -1.2951   -1.3895 C.2     1  UNL11       0.2601
     19 O           2.1013   -1.8488   -1.7259 O.2     1  UNL11      -0.2687
     20 C           4.4597   -2.0103   -1.4740 C.ar    1  UNL11       0.0383
     21 C           4.4463   -3.3086   -1.9423 C.ar    1  UNL11      -0.0469
     22 C           5.6082   -4.0511   -2.0580 C.ar    1  UNL11      -0.0257
     23 C           6.8125   -3.4922   -1.7005 C.ar    1  UNL11       0.1234
     24 F           7.9548   -4.1851   -1.8035 F       1  UNL11      -0.2055
     25 C           6.8509   -2.2007   -1.2313 C.ar    1  UNL11      -0.0257
     26 C           5.6829   -1.4868   -1.1262 C.ar    1  UNL11      -0.0469
     27 H          -1.2493   -0.4225   -1.3501 H       1  UNL11       0.0364
     28 H          -0.8654    1.2394   -0.8197 H       1  UNL11       0.0364
     29 H          -2.2844    0.1073    0.8409 H       1  UNL11       0.0392
     30 H          -1.2047   -1.2855    0.9639 H       1  UNL11       0.0392
     31 H           2.4940    2.9998    0.7487 H       1  UNL11       0.0661
     32 H           3.8449    4.2966    2.4132 H       1  UNL11       0.0619
     33 H           3.3629    4.0537    4.7543 H       1  UNL11       0.0618
     34 H           1.5345    2.5265    5.5661 H       1  UNL11       0.0627
     35 H          -1.4992   -0.2775    3.3841 H       1  UNL11       0.3013
     36 H           1.6452    1.6608   -1.0219 H       1  UNL11       0.1728
     37 H           3.9669    0.5517   -0.6486 H       1  UNL11       0.1731
     38 H           3.5009   -3.7569   -2.2251 H       1  UNL11       0.0626
     39 H           5.6168   -5.0755   -2.4255 H       1  UNL11       0.0646
     40 H           7.7808   -1.7102   -0.9346 H       1  UNL11       0.0646
     41 H           5.7365   -0.4716   -0.7529 H       1  UNL11       0.0626
@<TRIPOS>BOND
     1     1     2    2
     2     2     3    1
     3     2    16   am
     4     3     4    1
     5     3    27    1
     6     3    28    1
     7     4     5    1
     8     4    29    1
     9     4    30    1
    10     5     6    2
    11     6     7    1
    12     7     8   ar
    13     8     9   ar
    14     8    31    1
    15     9    10   ar
    16     9    32    1
    17    10    11   ar
    18    10    33    1
    19    11    12   ar
    20    11    34    1
    21    12    13    1
    22    12     7   ar
    23    13    14    2
    24    13    15   am
    25    15     5    1
    26    15    35    1
    27    16    17    1
    28    16    36    1
    29    17    18   am
    30    17    37    1
    31    18    19    2
    32    18    20    1
    33    20    21   ar
    34    21    22   ar
    35    21    38    1
    36    22    23   ar
    37    22    39    1
    38    23    24    1
    39    23    25   ar
    40    25    26   ar
    41    25    40    1
    42    26    20   ar
    43    26    41    1
@<TRIPOS>MOLECULE
*****
 41 43 0 0 0
SMALL
GASTEIGER

@<TRIPOS>ATOM
      1 O           1.0545   -1.0646   -1.5818 O.2     1  UNL11      -0.2743
      2 C           0.7290   -0.2184   -0.6751 C.2     1  UNL11       0.2296
      3 C          -0.6815    0.1710   -0.6006 C.3     1  UNL11       0.0363
      4 C          -1.2134   -0.2031    0.7799 C.3     1  UNL11       0.0595
      5 C          -0.4253    0.5407    1.7881 C.2     1  UNL11       0.2951
      6 N           0.9021    0.3496    1.8324 N.2     1  UNL11      -0.0454
      7 C           1.6655    1.0082    2.7220 C.ar    1  UNL11       0.1903
      8 C           3.0219    0.8194    2.7766 C.ar    1  UNL11      -0.0100
      9 C           3.8116    1.4905    3.6874 C.ar    1  UNL11      -0.0576
     10 C           3.1826    2.3757    4.5581 C.ar    1  UNL11      -0.0607
     11 C           1.8068    2.5793    4.5168 C.ar    1  UNL11      -0.0432
     12 C           1.0479    1.8937    3.5969 C.ar    1  UNL11       0.1121
     13 C          -0.3221    2.0576    3.5140 C.2     1  UNL11       0.3368
     14 O          -0.8491    2.8670    4.3200 O.2     1  UNL11      -0.2416
     15 N          -1.0793    1.3921    2.6184 N.am    1  UNL11      -0.1702
     16 N           1.7571    0.2550    0.1622 N.am    1  UNL11      -0.2341
     17 N           1.3770    1.1784    1.1694 N.am    1  UNL11      -0.2304
     18 C           2.3518    2.1562    1.5758 C.2     1  UNL11       0.2601
     19 O           1.9852    2.9618    2.4914 O.2     1  UNL11      -0.2687
     20 C           3.6798    2.2346    0.9910 C.ar    1  UNL11       0.0383
     21 C           4.0147    1.3300    0.0037 C.ar    1  UNL11      -0.0469
     22 C           5.2570    1.3465   -0.6054 C.ar    1  UNL11      -0.0257
     23 C           6.1896    2.2831   -0.2262 C.ar    1  UNL11       0.1234
     24 F           7.4002    2.3258   -0.7992 F       1  UNL11      -0.2055
     25 C           5.8788    3.1944    0.7550 C.ar    1  UNL11      -0.0257
     26 C           4.6390    3.1552    1.3430 C.ar    1  UNL11      -0.0469
     27 H          -1.2493   -0.4225   -1.3501 H       1  UNL11       0.0364
     28 H          -0.8654    1.2394   -0.8197 H       1  UNL11       0.0364
     29 H          -2.2844    0.1073    0.8409 H       1  UNL11       0.0392
     30 H          -1.2047   -1.2855    0.9639 H       1  UNL11       0.0392
     31 H           3.4972    0.1228    2.0869 H       1  UNL11       0.0661
     32 H           4.8800    1.3717    3.7618 H       1  UNL11       0.0619
     33 H           3.7970    2.9007    5.2655 H       1  UNL11       0.0618
     34 H           1.3087    3.2713    5.1932 H       1  UNL11       0.0627
     35 H          -2.1152    1.5081    2.5484 H       1  UNL11       0.3013
     36 H           2.7226   -0.0711    0.0283 H       1  UNL11       0.1728
     37 H           0.4500    1.1906    1.6225 H       1  UNL11       0.1731
     38 H           3.2857    0.5878   -0.3001 H       1  UNL11       0.0626
     39 H           5.5384    0.6416   -1.3855 H       1  UNL11       0.0646
     40 H           6.5831    3.9585    1.0921 H       1  UNL11       0.0646
     41 H           4.4162    3.8817    2.1146 H       1  UNL11       0.0626
@<TRIPOS>BOND
     1     1     2    2
     2     2     3    1
     3     2    16   am
     4     3     4    1
     5     3    27    1
     6     3    28    1
     7     4     5    1
     8     4    29    1
     9     4    30    1
    10     5     6    2
    11     6     7    1
    12     7     8   ar
    13     8     9   ar
    14     8    31    1
    15     9    10   ar
    16     9    32    1
    17    10    11   ar
    18    10    33    1
    19    11    12   ar
    20    11    34    1
    21    12    13    1
    22    12     7   ar
    23    13    14    2
    24    13    15   am
    25    15     5    1
    26    15    35    1
    27    16    17    1
    28    16    36    1
    29    17    18   am
    30    17    37    1
    31    18    19    2
    32    18    20    1
    33    20    21   ar
    34    21    22   ar
    35    21    38    1
    36    22    23   ar
    37    22    39    1
    38    23    24    1
    39    23    25   ar
    40    25    26   ar
    41    25    40    1
    42    26    20   ar
    43    26    41    1
@<TRIPOS>MOLECULE
*****
 41 43 0 0 0
SMALL
GASTEIGER

@<TRIPOS>ATOM
      1 O           1.0545   -1.0646   -1.5818 O.2     1  UNL11      -0.2743
      2 C           0.7290   -0.2184   -0.6751 C.2     1  UNL11       0.2296
      3 C          -0.6815    0.1710   -0.6006 C.3     1  UNL11       0.0363
      4 C          -1.2134   -0.2031    0.7799 C.3     1  UNL11       0.0595
      5 C          -0.4253    0.5407    1.7881 C.2     1  UNL11       0.2951
      6 N           0.9021    0.3496    1.8324 N.2     1  UNL11      -0.0454
      7 C           1.6655    1.0082    2.7220 C.ar    1  UNL11       0.1903
      8 C           3.0219    0.8194    2.7766 C.ar    1  UNL11      -0.0100
      9 C           3.8116    1.4905    3.6874 C.ar    1  UNL11      -0.0576
     10 C           3.1826    2.3757    4.5581 C.ar    1  UNL11      -0.0607
     11 C           1.8068    2.5793    4.5168 C.ar    1  UNL11      -0.0432
     12 C           1.0479    1.8937    3.5969 C.ar    1  UNL11       0.1121
     13 C          -0.3221    2.0576    3.5140 C.2     1  UNL11       0.3368
     14 O          -0.8491    2.8670    4.3200 O.2     1  UNL11      -0.2416
     15 N          -1.0793    1.3921    2.6184 N.am    1  UNL11      -0.1702
     16 N           1.7571    0.2550    0.1622 N.am    1  UNL11      -0.2341
     17 N           1.3770    1.1784    1.1694 N.am    1  UNL11      -0.2304
     18 C           2.3518    2.1562    1.5758 C.2     1  UNL11       0.2601
     19 O           1.9852    2.9618    2.4914 O.2     1  UNL11      -0.2687
     20 C           3.6798    2.2346    0.9910 C.ar    1  UNL11       0.0383
     21 C           4.5463    3.2005    1.4616 C.ar    1  UNL11      -0.0469
     22 C           5.8289    3.3323    0.9595 C.ar    1  UNL11      -0.0257
     23 C           6.2625    2.4857   -0.0335 C.ar    1  UNL11       0.1234
     24 F           7.4996    2.5872   -0.5383 F       1  UNL11      -0.2055
     25 C           5.4172    1.5160   -0.5182 C.ar    1  UNL11      -0.0257
     26 C           4.1496    1.4076   -0.0023 C.ar    1  UNL11      -0.0469
     27 H          -1.2493   -0.4225   -1.3501 H       1  UNL11       0.0364
     28 H          -0.8654    1.2394   -0.8197 H       1  UNL11       0.0364
     29 H          -2.2844    0.1073    0.8409 H       1  UNL11       0.0392
     30 H          -1.2047   -1.2855    0.9639 H       1  UNL11       0.0392
     31 H           3.4972    0.1228    2.0869 H       1  UNL11       0.0661
     32 H           4.8800    1.3717    3.7618 H       1  UNL11       0.0619
     33 H           3.7970    2.9007    5.2655 H       1  UNL11       0.0618
     34 H           1.3087    3.2713    5.1932 H       1  UNL11       0.0627
     35 H          -2.1152    1.5081    2.5484 H       1  UNL11       0.3013
     36 H           2.7226   -0.0711    0.0283 H       1  UNL11       0.1728
     37 H           0.4500    1.1906    1.6225 H       1  UNL11       0.1731
     38 H           4.2119    3.8725    2.2433 H       1  UNL11       0.0626
     39 H           6.5258    4.0874    1.3185 H       1  UNL11       0.0646
     40 H           5.7126    0.8186   -1.3054 H       1  UNL11       0.0646
     41 H           3.5003    0.6374   -0.3999 H       1  UNL11       0.0626
@<TRIPOS>BOND
     1     1     2    2
     2     2     3    1
     3     2    16   am
     4     3     4    1
     5     3    27    1
     6     3    28    1
     7     4     5    1
     8     4    29    1
     9     4    30    1
    10     5     6    2
    11     6     7    1
    12     7     8   ar
    13     8     9   ar
    14     8    31    1
    15     9    10   ar
    16     9    32    1
    17    10    11   ar
    18    10    33    1
    19    11    12   ar
    20    11    34    1
    21    12    13    1
    22    12     7   ar
    23    13    14    2
    24    13    15   am
    25    15     5    1
    26    15    35    1
    27    16    17    1
    28    16    36    1
    29    17    18   am
    30    17    37    1
    31    18    19    2
    32    18    20    1
    33    20    21   ar
    34    21    22   ar
    35    21    38    1
    36    22    23   ar
    37    22    39    1
    38    23    24    1
    39    23    25   ar
    40    25    26   ar
    41    25    40    1
    42    26    20   ar
    43    26    41    1
@<TRIPOS>MOLECULE
*****
 41 43 0 0 0
SMALL
GASTEIGER

@<TRIPOS>ATOM
      1 O           1.5261    0.3066    0.1811 O.2     1  UNL11      -0.2743
      2 C           0.7290   -0.2184   -0.6751 C.2     1  UNL11       0.2296
      3 C          -0.6815    0.1710   -0.6006 C.3     1  UNL11       0.0363
      4 C          -1.2134   -0.2031    0.7799 C.3     1  UNL11       0.0595
      5 C          -0.4253    0.5407    1.7881 C.2     1  UNL11       0.2951
      6 N          -0.7091    0.3567    3.0866 N.2     1  UNL11      -0.0454
      7 C          -0.0165    0.9998    4.0429 C.ar    1  UNL11       0.1903
      8 C          -0.2990    0.8201    5.3720 C.ar    1  UNL11      -0.0100
      9 C           0.4063    1.4774    6.3588 C.ar    1  UNL11      -0.0576
     10 C           1.4255    2.3373    5.9599 C.ar    1  UNL11      -0.0607
     11 C           1.7256    2.5318    4.6153 C.ar    1  UNL11      -0.0432
     12 C           1.0027    1.8616    3.6560 C.ar    1  UNL11       0.1121
     13 C           1.2585    2.0193    2.3068 C.2     1  UNL11       0.3368
     14 O           2.1880    2.8059    1.9910 O.2     1  UNL11      -0.2416
     15 N           0.5579    1.3700    1.3550 N.am    1  UNL11      -0.1702
     16 N           1.2848   -1.1178   -1.6049 N.am    1  UNL11      -0.2341
     17 N           0.3920   -1.6773   -2.5543 N.am    1  UNL11      -0.2304
     18 C          -0.9810   -1.8450   -2.1563 C.2     1  UNL11       0.2601
     19 O          -1.2683   -1.4703   -0.9736 O.2     1  UNL11      -0.2687
     20 C          -1.9933   -2.4040   -3.0362 C.ar    1  UNL11       0.0383
     21 C          -1.6160   -2.7888   -4.3069 C.ar    1  UNL11      -0.0469
     22 C          -2.5213   -3.3356   -5.1991 C.ar    1  UNL11      -0.0257
     23 C          -3.8326   -3.5049   -4.8217 C.ar    1  UNL11       0.1234
     24 F          -4.7321   -4.0337   -5.6625 F       1  UNL11      -0.2055
     25 C          -4.2319   -3.1290   -3.5611 C.ar    1  UNL11      -0.0257
     26 C          -3.3130   -2.5886   -2.6961 C.ar    1  UNL11      -0.0469
     27 H          -1.2493   -0.4225   -1.3501 H       1  UNL11       0.0364
     28 H          -0.8654    1.2394   -0.8197 H       1  UNL11       0.0364
     29 H          -2.2844    0.1073    0.8409 H       1  UNL11       0.0392
     30 H          -1.2047   -1.2855    0.9639 H       1  UNL11       0.0392
     31 H          -1.1002    0.1428    5.6658 H       1  UNL11       0.0661
     32 H           0.2167    1.3629    7.4134 H       1  UNL11       0.0619
     33 H           1.9770    2.8472    6.7276 H       1  UNL11       0.0618
     34 H           2.5224    3.2010    4.2963 H       1  UNL11       0.0627
     35 H           0.7428    1.4830    0.3329 H       1  UNL11       0.3013
     36 H           2.2887   -1.3364   -1.5742 H       1  UNL11       0.1728
     37 H           0.6669   -1.9672   -3.5057 H       1  UNL11       0.1731
     38 H          -0.5845   -2.6576   -4.6126 H       1  UNL11       0.0626
     39 H          -2.2418   -3.6449   -6.2045 H       1  UNL11       0.0646
     40 H          -5.2608   -3.2426   -3.2120 H       1  UNL11       0.0646
     41 H          -3.6499   -2.2985   -1.7086 H       1  UNL11       0.0626
@<TRIPOS>BOND
     1     1     2    2
     2     2     3    1
     3     2    16   am
     4     3     4    1
     5     3    27    1
     6     3    28    1
     7     4     5    1
     8     4    29    1
     9     4    30    1
    10     5     6    2
    11     6     7    1
    12     7     8   ar
    13     8     9   ar
    14     8    31    1
    15     9    10   ar
    16     9    32    1
    17    10    11   ar
    18    10    33    1
    19    11    12   ar
    20    11    34    1
    21    12    13    1
    22    12     7   ar
    23    13    14    2
    24    13    15   am
    25    15     5    1
    26    15    35    1
    27    16    17    1
    28    16    36    1
    29    17    18   am
    30    17    37    1
    31    18    19    2
    32    18    20    1
    33    20    21   ar
    34    21    22   ar
    35    21    38    1
    36    22    23   ar
    37    22    39    1
    38    23    24    1
    39    23    25   ar
    40    25    26   ar
    41    25    40    1
    42    26    20   ar
    43    26    41    1
@<TRIPOS>MOLECULE
*****
 41 43 0 0 0
SMALL
GASTEIGER

@<TRIPOS>ATOM
      1 O           1.5261    0.3066    0.1811 O.2     1  UNL11      -0.2743
      2 C           0.7290   -0.2184   -0.6751 C.2     1  UNL11       0.2296
      3 C          -0.6815    0.1710   -0.6006 C.3     1  UNL11       0.0363
      4 C          -1.2134   -0.2031    0.7799 C.3     1  UNL11       0.0595
      5 C          -1.0486   -1.6641    0.9505 C.2     1  UNL11       0.2951
      6 N          -2.1421   -2.4118    1.1644 N.2     1  UNL11      -0.0454
      7 C          -2.0489   -3.7446    1.3154 C.ar    1  UNL11       0.1903
      8 C          -3.1592   -4.5174    1.5356 C.ar    1  UNL11      -0.0100
      9 C          -3.0714   -5.8852    1.6928 C.ar    1  UNL11      -0.0576
     10 C          -1.8074   -6.4635    1.6193 C.ar    1  UNL11      -0.0607
     11 C          -0.6696   -5.6942    1.3968 C.ar    1  UNL11      -0.0432
     12 C          -0.7917   -4.3325    1.2449 C.ar    1  UNL11       0.1121
     13 C           0.3057   -3.5218    1.0232 C.2     1  UNL11       0.3368
     14 O           1.4285   -4.0860    0.9641 O.2     1  UNL11      -0.2416
     15 N           0.2020   -2.1857    0.8733 N.am    1  UNL11      -0.1702
     16 N           1.2848   -1.1178   -1.6049 N.am    1  UNL11      -0.2341
     17 N           0.3920   -1.6773   -2.5543 N.am    1  UNL11      -0.2304
     18 C           0.9255   -2.0190   -3.8466 C.2     1  UNL11       0.2601
     19 O           2.1652   -1.7837   -4.0179 O.2     1  UNL11      -0.2687
     20 C           0.1159   -2.6000   -4.9042 C.ar    1  UNL11       0.0383
     21 C          -0.9609   -3.3864   -4.5474 C.ar    1  UNL11      -0.0469
     22 C          -1.7821   -3.9677   -5.4973 C.ar    1  UNL11      -0.0257
     23 C          -1.5291   -3.7641   -6.8334 C.ar    1  UNL11       0.1234
     24 F          -2.3077   -4.3117   -7.7765 F       1  UNL11      -0.2055
     25 C          -0.4623   -2.9847   -7.2130 C.ar    1  UNL11      -0.0257
     26 C           0.3366   -2.4203   -6.2497 C.ar    1  UNL11      -0.0469
     27 H          -1.2493   -0.4225   -1.3501 H       1  UNL11       0.0364
     28 H          -0.8654    1.2394   -0.8197 H       1  UNL11       0.0364
     29 H          -0.6060    0.3328    1.5487 H       1  UNL11       0.0392
     30 H          -2.2509    0.1181    0.9411 H       1  UNL11       0.0392
     31 H          -4.1406   -4.0476    1.5898 H       1  UNL11       0.0661
     32 H          -3.9189   -6.5278    1.8659 H       1  UNL11       0.0619
     33 H          -1.7385   -7.5286    1.7387 H       1  UNL11       0.0618
     34 H           0.3214   -6.1398    1.3361 H       1  UNL11       0.0627
     35 H           1.0251   -1.5643    0.7063 H       1  UNL11       0.3013
     36 H           2.2887   -1.3364   -1.5742 H       1  UNL11       0.1728
     37 H          -0.6086   -1.8532   -2.3733 H       1  UNL11       0.1731
     38 H          -1.1664   -3.5527   -3.4964 H       1  UNL11       0.0626
     39 H          -2.6355   -4.5901   -5.2346 H       1  UNL11       0.0646
     40 H          -0.2185   -2.7915   -8.2602 H       1  UNL11       0.0646
     41 H           1.1722   -1.8111   -6.5715 H       1  UNL11       0.0626
@<TRIPOS>BOND
     1     1     2    2
     2     2     3    1
     3     2    16   am
     4     3     4    1
     5     3    27    1
     6     3    28    1
     7     4     5    1
     8     4    29    1
     9     4    30    1
    10     5     6    2
    11     6     7    1
    12     7     8   ar
    13     8     9   ar
    14     8    31    1
    15     9    10   ar
    16     9    32    1
    17    10    11   ar
    18    10    33    1
    19    11    12   ar
    20    11    34    1
    21    12    13    1
    22    12     7   ar
    23    13    14    2
    24    13    15   am
    25    15     5    1
    26    15    35    1
    27    16    17    1
    28    16    36    1
    29    17    18   am
    30    17    37    1
    31    18    19    2
    32    18    20    1
    33    20    21   ar
    34    21    22   ar
    35    21    38    1
    36    22    23   ar
    37    22    39    1
    38    23    24    1
    39    23    25   ar
    40    25    26   ar
    41    25    40    1
    42    26    20   ar
    43    26    41    1
