@<TRIPOS>MOLECULE
*****
 49 52 0 0 0
SMALL
GASTEIGER

@<TRIPOS>ATOM
      1 O          -2.2542   -0.2420   -1.0083 O.2     1  UNL11      -0.2752
      2 C          -1.4459   -1.2094   -1.1218 C.2     1  UNL11       0.2217
      3 C          -1.8500   -2.3250   -2.0507 C.3     1  UNL11       0.0727
      4 C          -1.3582   -2.0717   -3.4185 C.2     1  UNL11       0.1237
      5 N          -2.0794   -1.4054   -4.3288 N.2     1  UNL11      -0.0071
      6 N          -1.5993   -1.1784   -5.5642 N.am    1  UNL11      -0.0356
      7 C          -0.3777   -1.6092   -5.9383 C.2     1  UNL11       0.4383
      8 O           0.0954   -1.4098   -7.0861 O.2     1  UNL11      -0.2116
      9 C           0.3971   -2.2939   -5.0464 C.ar    1  UNL11       0.1004
     10 C           1.6423   -2.7371   -5.4134 C.ar    1  UNL11      -0.0441
     11 C           2.4474   -3.4365   -4.5210 C.ar    1  UNL11      -0.0608
     12 C           1.9616   -3.6691   -3.2684 C.ar    1  UNL11      -0.0611
     13 C           0.7062   -3.2170   -2.9123 C.ar    1  UNL11      -0.0518
     14 C          -0.1070   -2.5232   -3.7777 C.ar    1  UNL11       0.0194
     15 N          -0.2484   -1.2257   -0.4167 N.am    1  UNL11      -0.2982
     16 C           0.1393   -0.1605    0.4714 C.3     1  UNL11       0.0304
     17 C           1.3950    0.5110   -0.0259 C.3     1  UNL11       0.0280
     18 N           2.3868   -0.4905   -0.3058 N.pl3   1  UNL11      -0.3269
     19 C           3.7347   -0.1830    0.0553 C.ar    1  UNL11       0.0303
     20 C           4.0232    0.6350    1.0998 C.ar    1  UNL11      -0.0406
     21 C           5.3379    0.9680    1.4397 C.ar    1  UNL11      -0.0595
     22 C           6.3700    0.4505    0.6913 C.ar    1  UNL11      -0.0500
     23 C           6.0938   -0.3786   -0.3704 C.ar    1  UNL11       0.0566
     24 C           7.2200   -0.9131   -1.1769 C.3     1  UNL11       0.4175
     25 F           8.4458   -0.4668   -0.7089 F       1  UNL11      -0.1659
     26 F           7.0728   -0.5416   -2.4964 F       1  UNL11      -0.1659
     27 F           7.2007   -2.3064   -1.1198 F       1  UNL11      -0.1659
     28 C           4.7700   -0.6994   -0.6930 C.ar    1  UNL11      -0.0290
     29 C           2.0744   -1.7351   -0.9126 C.3     1  UNL11       0.0280
     30 C           0.7061   -2.2945   -0.5668 C.3     1  UNL11       0.0304
     31 H          -1.5474   -3.2620   -1.5984 H       1  UNL11       0.0425
     32 H          -2.9912   -2.2490   -2.0446 H       1  UNL11       0.0425
     33 H          -2.1576   -0.6576   -6.2794 H       1  UNL11       0.4829
     34 H           2.0676   -2.5764   -6.3989 H       1  UNL11       0.0627
     35 H           3.4248   -3.7780   -4.8264 H       1  UNL11       0.0618
     36 H           2.5757   -4.2181   -2.5368 H       1  UNL11       0.0618
     37 H           0.3757   -3.4317   -1.9081 H       1  UNL11       0.0624
     38 H           0.4480   -0.6931    1.4241 H       1  UNL11       0.0480
     39 H          -0.6512    0.5195    0.7841 H       1  UNL11       0.0480
     40 H           1.2195    1.0671   -0.9763 H       1  UNL11       0.0479
     41 H           1.7076    1.2247    0.7648 H       1  UNL11       0.0479
     42 H           3.2499    1.0504    1.6984 H       1  UNL11       0.0636
     43 H           5.5649    1.6110    2.2716 H       1  UNL11       0.0618
     44 H           7.4141    0.6813    0.9220 H       1  UNL11       0.0623
     45 H           4.5738   -1.3540   -1.5398 H       1  UNL11       0.0641
     46 H           2.0652   -1.5733   -2.0190 H       1  UNL11       0.0479
     47 H           2.8797   -2.5032   -0.7434 H       1  UNL11       0.0479
     48 H           0.4448   -3.0539   -1.3056 H       1  UNL11       0.0480
     49 H           0.8133   -2.7794    0.4248 H       1  UNL11       0.0480
@<TRIPOS>BOND
     1     1     2    2
     2     2     3    1
     3     2    15   am
     4     3     4    1
     5     3    31    1
     6     3    32    1
     7     4     5    2
     8     5     6    1
     9     6     7   am
    10     6    33    1
    11     7     8    2
    12     7     9    1
    13     9    10   ar
    14    10    11   ar
    15    10    34    1
    16    11    12   ar
    17    11    35    1
    18    12    13   ar
    19    12    36    1
    20    13    14   ar
    21    13    37    1
    22    14     4    1
    23    14     9   ar
    24    15    16    1
    25    16    17    1
    26    16    38    1
    27    16    39    1
    28    17    18    1
    29    17    40    1
    30    17    41    1
    31    18    19    1
    32    18    29    1
    33    19    20   ar
    34    20    21   ar
    35    20    42    1
    36    21    22   ar
    37    21    43    1
    38    22    23   ar
    39    22    44    1
    40    23    24    1
    41    23    28   ar
    42    24    25    1
    43    24    26    1
    44    24    27    1
    45    28    19   ar
    46    28    45    1
    47    29    30    1
    48    29    46    1
    49    29    47    1
    50    30    15    1
    51    30    48    1
    52    30    49    1
@<TRIPOS>MOLECULE
*****
 49 52 0 0 0
SMALL
GASTEIGER

@<TRIPOS>ATOM
      1 O          -1.7643   -2.1677   -1.8850 O.2     1  UNL11      -0.2752
      2 C          -1.4459   -1.2094   -1.1218 C.2     1  UNL11       0.2217
      3 C          -2.4244   -0.0677   -1.0231 C.3     1  UNL11       0.0727
      4 C          -1.8000    1.1963   -1.4584 C.2     1  UNL11       0.1237
      5 N          -1.6868    2.2569   -0.6491 N.2     1  UNL11      -0.0071
      6 N          -1.1010    3.3918   -1.0699 N.am    1  UNL11      -0.0356
      7 C          -0.6048    3.5109   -2.3179 C.2     1  UNL11       0.4383
      8 O          -0.0517    4.5597   -2.7363 O.2     1  UNL11      -0.2116
      9 C          -0.6957    2.4573   -3.1820 C.ar    1  UNL11       0.1004
     10 C          -0.1942    2.5644   -4.4542 C.ar    1  UNL11      -0.0441
     11 C          -0.2767    1.5040   -5.3501 C.ar    1  UNL11      -0.0608
     12 C          -0.8719    0.3530   -4.9258 C.ar    1  UNL11      -0.0611
     13 C          -1.3723    0.2591   -3.6420 C.ar    1  UNL11      -0.0518
     14 C          -1.3016    1.2941   -2.7392 C.ar    1  UNL11       0.0194
     15 N          -0.2484   -1.2257   -0.4167 N.am    1  UNL11      -0.2982
     16 C           0.1393   -0.1605    0.4714 C.3     1  UNL11       0.0304
     17 C           1.3950    0.5110   -0.0259 C.3     1  UNL11       0.0280
     18 N           2.3868   -0.4905   -0.3058 N.pl3   1  UNL11      -0.3269
     19 C           3.7347   -0.1830    0.0553 C.ar    1  UNL11       0.0303
     20 C           4.0232    0.6350    1.0998 C.ar    1  UNL11      -0.0406
     21 C           5.3379    0.9680    1.4397 C.ar    1  UNL11      -0.0595
     22 C           6.3700    0.4505    0.6913 C.ar    1  UNL11      -0.0500
     23 C           6.0938   -0.3786   -0.3704 C.ar    1  UNL11       0.0566
     24 C           7.2200   -0.9131   -1.1769 C.3     1  UNL11       0.4175
     25 F           8.4458   -0.4668   -0.7089 F       1  UNL11      -0.1659
     26 F           7.0728   -0.5416   -2.4964 F       1  UNL11      -0.1659
     27 F           7.2007   -2.3064   -1.1198 F       1  UNL11      -0.1659
     28 C           4.7700   -0.6994   -0.6930 C.ar    1  UNL11      -0.0290
     29 C           2.0744   -1.7351   -0.9126 C.3     1  UNL11       0.0280
     30 C           0.7061   -2.2945   -0.5668 C.3     1  UNL11       0.0304
     31 H          -3.3300   -0.3586   -1.5421 H       1  UNL11       0.0425
     32 H          -2.6286   -0.0152    0.1010 H       1  UNL11       0.0425
     33 H          -1.0086    4.2236   -0.4421 H       1  UNL11       0.4829
     34 H           0.2851    3.4608   -4.8345 H       1  UNL11       0.0627
     35 H           0.1232    1.6053   -6.3476 H       1  UNL11       0.0618
     36 H          -0.9509   -0.5065   -5.6104 H       1  UNL11       0.0618
     37 H          -1.8327   -0.6760   -3.3638 H       1  UNL11       0.0624
     38 H           0.4480   -0.6931    1.4241 H       1  UNL11       0.0480
     39 H          -0.6512    0.5195    0.7841 H       1  UNL11       0.0480
     40 H           1.2195    1.0671   -0.9763 H       1  UNL11       0.0479
     41 H           1.7076    1.2247    0.7648 H       1  UNL11       0.0479
     42 H           3.2499    1.0504    1.6984 H       1  UNL11       0.0636
     43 H           5.5649    1.6110    2.2716 H       1  UNL11       0.0618
     44 H           7.4141    0.6813    0.9220 H       1  UNL11       0.0623
     45 H           4.5738   -1.3540   -1.5398 H       1  UNL11       0.0641
     46 H           2.0652   -1.5733   -2.0190 H       1  UNL11       0.0479
     47 H           2.8797   -2.5032   -0.7434 H       1  UNL11       0.0479
     48 H           0.4448   -3.0539   -1.3056 H       1  UNL11       0.0480
     49 H           0.8133   -2.7794    0.4248 H       1  UNL11       0.0480
@<TRIPOS>BOND
     1     1     2    2
     2     2     3    1
     3     2    15   am
     4     3     4    1
     5     3    31    1
     6     3    32    1
     7     4     5    2
     8     5     6    1
     9     6     7   am
    10     6    33    1
    11     7     8    2
    12     7     9    1
    13     9    10   ar
    14    10    11   ar
    15    10    34    1
    16    11    12   ar
    17    11    35    1
    18    12    13   ar
    19    12    36    1
    20    13    14   ar
    21    13    37    1
    22    14     4    1
    23    14     9   ar
    24    15    16    1
    25    16    17    1
    26    16    38    1
    27    16    39    1
    28    17    18    1
    29    17    40    1
    30    17    41    1
    31    18    19    1
    32    18    29    1
    33    19    20   ar
    34    20    21   ar
    35    20    42    1
    36    21    22   ar
    37    21    43    1
    38    22    23   ar
    39    22    44    1
    40    23    24    1
    41    23    28   ar
    42    24    25    1
    43    24    26    1
    44    24    27    1
    45    28    19   ar
    46    28    45    1
    47    29    30    1
    48    29    46    1
    49    29    47    1
    50    30    15    1
    51    30    48    1
    52    30    49    1
@<TRIPOS>MOLECULE
*****
 49 52 0 0 0
SMALL
GASTEIGER

@<TRIPOS>ATOM
      1 O          -2.2542   -0.2420   -1.0083 O.2     1  UNL11      -0.2752
      2 C          -1.4459   -1.2094   -1.1218 C.2     1  UNL11       0.2217
      3 C          -1.8500   -2.3250   -2.0507 C.3     1  UNL11       0.0727
      4 C          -1.9455   -3.6044   -1.3223 C.2     1  UNL11       0.1237
      5 N          -2.2750   -4.7523   -1.9277 N.2     1  UNL11      -0.0071
      6 N          -2.3415   -5.9058   -1.2398 N.am    1  UNL11      -0.0356
      7 C          -2.0808   -5.9570    0.0820 C.2     1  UNL11       0.4383
      8 O          -2.1348   -7.0217    0.7486 O.2     1  UNL11      -0.2116
      9 C          -1.7403   -4.8132    0.7459 C.ar    1  UNL11       0.1004
     10 C          -1.4716   -4.8510    2.0905 C.ar    1  UNL11      -0.0441
     11 C          -1.1235   -3.6981    2.7858 C.ar    1  UNL11      -0.0608
     12 C          -1.0572   -2.5272    2.0904 C.ar    1  UNL11      -0.0611
     13 C          -1.3302   -2.5038    0.7367 C.ar    1  UNL11      -0.0518
     14 C          -1.6759   -3.6310    0.0287 C.ar    1  UNL11       0.0194
     15 N          -0.2484   -1.2257   -0.4167 N.am    1  UNL11      -0.2982
     16 C           0.1393   -0.1605    0.4714 C.3     1  UNL11       0.0304
     17 C           1.3950    0.5110   -0.0259 C.3     1  UNL11       0.0280
     18 N           2.3868   -0.4905   -0.3058 N.pl3   1  UNL11      -0.3269
     19 C           3.7347   -0.1830    0.0553 C.ar    1  UNL11       0.0303
     20 C           4.0232    0.6350    1.0998 C.ar    1  UNL11      -0.0406
     21 C           5.3379    0.9680    1.4397 C.ar    1  UNL11      -0.0595
     22 C           6.3700    0.4505    0.6913 C.ar    1  UNL11      -0.0500
     23 C           6.0938   -0.3786   -0.3704 C.ar    1  UNL11       0.0566
     24 C           7.2200   -0.9131   -1.1769 C.3     1  UNL11       0.4175
     25 F           8.4458   -0.4668   -0.7089 F       1  UNL11      -0.1659
     26 F           7.0728   -0.5416   -2.4964 F       1  UNL11      -0.1659
     27 F           7.2007   -2.3064   -1.1198 F       1  UNL11      -0.1659
     28 C           4.7700   -0.6994   -0.6930 C.ar    1  UNL11      -0.0290
     29 C           2.0744   -1.7351   -0.9126 C.3     1  UNL11       0.0280
     30 C           0.7061   -2.2945   -0.5668 C.3     1  UNL11       0.0304
     31 H          -2.7390   -2.0095   -2.5841 H       1  UNL11       0.0425
     32 H          -0.9669   -2.3735   -2.7758 H       1  UNL11       0.0425
     33 H          -2.5973   -6.8061   -1.7073 H       1  UNL11       0.4829
     34 H          -1.5141   -5.7590    2.6834 H       1  UNL11       0.0627
     35 H          -0.9152   -3.7458    3.8439 H       1  UNL11       0.0618
     36 H          -0.7817   -1.5964    2.6113 H       1  UNL11       0.0618
     37 H          -1.2623   -1.5483    0.2406 H       1  UNL11       0.0624
     38 H           0.4480   -0.6931    1.4241 H       1  UNL11       0.0480
     39 H          -0.6512    0.5195    0.7841 H       1  UNL11       0.0480
     40 H           1.2195    1.0671   -0.9763 H       1  UNL11       0.0479
     41 H           1.7076    1.2247    0.7648 H       1  UNL11       0.0479
     42 H           3.2499    1.0504    1.6984 H       1  UNL11       0.0636
     43 H           5.5649    1.6110    2.2716 H       1  UNL11       0.0618
     44 H           7.4141    0.6813    0.9220 H       1  UNL11       0.0623
     45 H           4.5738   -1.3540   -1.5398 H       1  UNL11       0.0641
     46 H           2.0652   -1.5733   -2.0190 H       1  UNL11       0.0479
     47 H           2.8797   -2.5032   -0.7434 H       1  UNL11       0.0479
     48 H           0.4448   -3.0539   -1.3056 H       1  UNL11       0.0480
     49 H           0.8133   -2.7794    0.4248 H       1  UNL11       0.0480
@<TRIPOS>BOND
     1     1     2    2
     2     2     3    1
     3     2    15   am
     4     3     4    1
     5     3    31    1
     6     3    32    1
     7     4     5    2
     8     5     6    1
     9     6     7   am
    10     6    33    1
    11     7     8    2
    12     7     9    1
    13     9    10   ar
    14    10    11   ar
    15    10    34    1
    16    11    12   ar
    17    11    35    1
    18    12    13   ar
    19    12    36    1
    20    13    14   ar
    21    13    37    1
    22    14     4    1
    23    14     9   ar
    24    15    16    1
    25    16    17    1
    26    16    38    1
    27    16    39    1
    28    17    18    1
    29    17    40    1
    30    17    41    1
    31    18    19    1
    32    18    29    1
    33    19    20   ar
    34    20    21   ar
    35    20    42    1
    36    21    22   ar
    37    21    43    1
    38    22    23   ar
    39    22    44    1
    40    23    24    1
    41    23    28   ar
    42    24    25    1
    43    24    26    1
    44    24    27    1
    45    28    19   ar
    46    28    45    1
    47    29    30    1
    48    29    46    1
    49    29    47    1
    50    30    15    1
    51    30    48    1
    52    30    49    1
@<TRIPOS>MOLECULE
*****
 49 52 0 0 0
SMALL
GASTEIGER

@<TRIPOS>ATOM
      1 O          -2.2542   -0.2420   -1.0083 O.2     1  UNL11      -0.2752
      2 C          -1.4459   -1.2094   -1.1218 C.2     1  UNL11       0.2217
      3 C          -1.8500   -2.3250   -2.0507 C.3     1  UNL11       0.0727
      4 C          -1.2945   -3.6134   -1.5947 C.2     1  UNL11       0.1237
      5 N          -1.4986   -4.7583   -2.2583 N.2     1  UNL11      -0.0071
      6 N          -0.9684   -5.9157   -1.8253 N.am    1  UNL11      -0.0356
      7 C          -0.2125   -5.9739   -0.7104 C.2     1  UNL11       0.4383
      8 O           0.2957   -7.0422   -0.2842 O.2     1  UNL11      -0.2116
      9 C           0.0251   -4.8336    0.0024 C.ar    1  UNL11       0.1004
     10 C           0.7932   -4.8783    1.1380 C.ar    1  UNL11      -0.0441
     11 C           1.0471   -3.7291    1.8788 C.ar    1  UNL11      -0.0608
     12 C           0.5090   -2.5548    1.4422 C.ar    1  UNL11      -0.0611
     13 C          -0.2624   -2.5244    0.2970 C.ar    1  UNL11      -0.0518
     14 C          -0.5263   -3.6477   -0.4514 C.ar    1  UNL11       0.0194
     15 N          -0.2484   -1.2257   -0.4167 N.am    1  UNL11      -0.2982
     16 C           0.1393   -0.1605    0.4714 C.3     1  UNL11       0.0304
     17 C           1.3950    0.5110   -0.0259 C.3     1  UNL11       0.0280
     18 N           2.3868   -0.4905   -0.3058 N.pl3   1  UNL11      -0.3269
     19 C           3.7347   -0.1830    0.0553 C.ar    1  UNL11       0.0303
     20 C           4.1952    1.0941    0.0666 C.ar    1  UNL11      -0.0406
     21 C           5.5213    1.4014    0.3863 C.ar    1  UNL11      -0.0595
     22 C           6.3850    0.3768    0.6980 C.ar    1  UNL11      -0.0500
     23 C           5.9338   -0.9221    0.6898 C.ar    1  UNL11       0.0566
     24 C           6.8852   -2.0156    1.0118 C.3     1  UNL11       0.4175
     25 F           8.1542   -1.5300    1.2851 F       1  UNL11      -0.1659
     26 F           6.9537   -2.9054   -0.0391 F       1  UNL11      -0.1659
     27 F           6.4218   -2.7086    2.1298 F       1  UNL11      -0.1659
     28 C           4.6019   -1.2073    0.3672 C.ar    1  UNL11      -0.0290
     29 C           2.0744   -1.7351   -0.9126 C.3     1  UNL11       0.0280
     30 C           0.7061   -2.2945   -0.5668 C.3     1  UNL11       0.0304
     31 H          -2.9258   -2.2835   -2.1738 H       1  UNL11       0.0425
     32 H          -1.3418   -2.0255   -3.0306 H       1  UNL11       0.0425
     33 H          -1.1234   -6.8133   -2.3399 H       1  UNL11       0.4829
     34 H           1.2391   -5.7899    1.5227 H       1  UNL11       0.0627
     35 H           1.6537   -3.7822    2.7700 H       1  UNL11       0.0618
     36 H           0.6934   -1.6259    2.0051 H       1  UNL11       0.0618
     37 H          -0.6617   -1.5668    0.0016 H       1  UNL11       0.0624
     38 H           0.4480   -0.6931    1.4241 H       1  UNL11       0.0480
     39 H          -0.6512    0.5195    0.7841 H       1  UNL11       0.0480
     40 H           1.2195    1.0671   -0.9763 H       1  UNL11       0.0479
     41 H           1.7076    1.2247    0.7648 H       1  UNL11       0.0479
     42 H           3.5543    1.9083   -0.1681 H       1  UNL11       0.0636
     43 H           5.8827    2.4144    0.4012 H       1  UNL11       0.0618
     44 H           7.4301    0.5700    0.9570 H       1  UNL11       0.0623
     45 H           4.2669   -2.2426    0.3626 H       1  UNL11       0.0641
     46 H           2.0652   -1.5733   -2.0190 H       1  UNL11       0.0479
     47 H           2.8797   -2.5032   -0.7434 H       1  UNL11       0.0479
     48 H           0.4448   -3.0539   -1.3056 H       1  UNL11       0.0480
     49 H           0.8133   -2.7794    0.4248 H       1  UNL11       0.0480
@<TRIPOS>BOND
     1     1     2    2
     2     2     3    1
     3     2    15   am
     4     3     4    1
     5     3    31    1
     6     3    32    1
     7     4     5    2
     8     5     6    1
     9     6     7   am
    10     6    33    1
    11     7     8    2
    12     7     9    1
    13     9    10   ar
    14    10    11   ar
    15    10    34    1
    16    11    12   ar
    17    11    35    1
    18    12    13   ar
    19    12    36    1
    20    13    14   ar
    21    13    37    1
    22    14     4    1
    23    14     9   ar
    24    15    16    1
    25    16    17    1
    26    16    38    1
    27    16    39    1
    28    17    18    1
    29    17    40    1
    30    17    41    1
    31    18    19    1
    32    18    29    1
    33    19    20   ar
    34    20    21   ar
    35    20    42    1
    36    21    22   ar
    37    21    43    1
    38    22    23   ar
    39    22    44    1
    40    23    24    1
    41    23    28   ar
    42    24    25    1
    43    24    26    1
    44    24    27    1
    45    28    19   ar
    46    28    45    1
    47    29    30    1
    48    29    46    1
    49    29    47    1
    50    30    15    1
    51    30    48    1
    52    30    49    1
@<TRIPOS>MOLECULE
*****
 49 52 0 0 0
SMALL
GASTEIGER

@<TRIPOS>ATOM
      1 O          -2.2542   -0.2420   -1.0083 O.2     1  UNL11      -0.2752
      2 C          -1.4459   -1.2094   -1.1218 C.2     1  UNL11       0.2217
      3 C          -1.8500   -2.3250   -2.0507 C.3     1  UNL11       0.0727
      4 C          -1.9455   -3.6044   -1.3223 C.2     1  UNL11       0.1237
      5 N          -2.7960   -3.7894   -0.3048 N.2     1  UNL11      -0.0071
      6 N          -2.8699   -4.9714    0.3321 N.am    1  UNL11      -0.0356
      7 C          -2.0954   -6.0161   -0.0238 C.2     1  UNL11       0.4383
      8 O          -2.1450   -7.1318    0.5540 O.2     1  UNL11      -0.2116
      9 C          -1.2114   -5.8783   -1.0555 C.ar    1  UNL11       0.1004
     10 C          -0.4180   -6.9332   -1.4286 C.ar    1  UNL11      -0.0441
     11 C           0.4890   -6.8142   -2.4760 C.ar    1  UNL11      -0.0608
     12 C           0.5666   -5.6160   -3.1219 C.ar    1  UNL11      -0.0611
     13 C          -0.2384   -4.5623   -2.7357 C.ar    1  UNL11      -0.0518
     14 C          -1.1424   -4.6571   -1.7036 C.ar    1  UNL11       0.0194
     15 N          -0.2484   -1.2257   -0.4167 N.am    1  UNL11      -0.2982
     16 C           0.1393   -0.1605    0.4714 C.3     1  UNL11       0.0304
     17 C           1.3950    0.5110   -0.0259 C.3     1  UNL11       0.0280
     18 N           2.3868   -0.4905   -0.3058 N.pl3   1  UNL11      -0.3269
     19 C           3.7347   -0.1830    0.0553 C.ar    1  UNL11       0.0303
     20 C           4.0232    0.6350    1.0998 C.ar    1  UNL11      -0.0406
     21 C           5.3379    0.9680    1.4397 C.ar    1  UNL11      -0.0595
     22 C           6.3700    0.4505    0.6913 C.ar    1  UNL11      -0.0500
     23 C           6.0938   -0.3786   -0.3704 C.ar    1  UNL11       0.0566
     24 C           7.2200   -0.9131   -1.1769 C.3     1  UNL11       0.4175
     25 F           8.4458   -0.4668   -0.7089 F       1  UNL11      -0.1659
     26 F           7.0728   -0.5416   -2.4964 F       1  UNL11      -0.1659
     27 F           7.2007   -2.3064   -1.1198 F       1  UNL11      -0.1659
     28 C           4.7700   -0.6994   -0.6930 C.ar    1  UNL11      -0.0290
     29 C           2.0744   -1.7351   -0.9126 C.3     1  UNL11       0.0280
     30 C           0.7061   -2.2945   -0.5668 C.3     1  UNL11       0.0304
     31 H          -2.7390   -2.0095   -2.5841 H       1  UNL11       0.0425
     32 H          -0.9669   -2.3735   -2.7758 H       1  UNL11       0.0425
     33 H          -3.5330   -5.1225    1.1270 H       1  UNL11       0.4829
     34 H          -0.4449   -7.9030   -0.9420 H       1  UNL11       0.0627
     35 H           1.1057   -7.6546   -2.7566 H       1  UNL11       0.0618
     36 H           1.2732   -5.4898   -3.9576 H       1  UNL11       0.0618
     37 H          -0.1317   -3.6391   -3.2834 H       1  UNL11       0.0624
     38 H           0.4480   -0.6931    1.4241 H       1  UNL11       0.0480
     39 H          -0.6512    0.5195    0.7841 H       1  UNL11       0.0480
     40 H           1.2195    1.0671   -0.9763 H       1  UNL11       0.0479
     41 H           1.7076    1.2247    0.7648 H       1  UNL11       0.0479
     42 H           3.2499    1.0504    1.6984 H       1  UNL11       0.0636
     43 H           5.5649    1.6110    2.2716 H       1  UNL11       0.0618
     44 H           7.4141    0.6813    0.9220 H       1  UNL11       0.0623
     45 H           4.5738   -1.3540   -1.5398 H       1  UNL11       0.0641
     46 H           2.0652   -1.5733   -2.0190 H       1  UNL11       0.0479
     47 H           2.8797   -2.5032   -0.7434 H       1  UNL11       0.0479
     48 H           0.4448   -3.0539   -1.3056 H       1  UNL11       0.0480
     49 H           0.8133   -2.7794    0.4248 H       1  UNL11       0.0480
@<TRIPOS>BOND
     1     1     2    2
     2     2     3    1
     3     2    15   am
     4     3     4    1
     5     3    31    1
     6     3    32    1
     7     4     5    2
     8     5     6    1
     9     6     7   am
    10     6    33    1
    11     7     8    2
    12     7     9    1
    13     9    10   ar
    14    10    11   ar
    15    10    34    1
    16    11    12   ar
    17    11    35    1
    18    12    13   ar
    19    12    36    1
    20    13    14   ar
    21    13    37    1
    22    14     4    1
    23    14     9   ar
    24    15    16    1
    25    16    17    1
    26    16    38    1
    27    16    39    1
    28    17    18    1
    29    17    40    1
    30    17    41    1
    31    18    19    1
    32    18    29    1
    33    19    20   ar
    34    20    21   ar
    35    20    42    1
    36    21    22   ar
    37    21    43    1
    38    22    23   ar
    39    22    44    1
    40    23    24    1
    41    23    28   ar
    42    24    25    1
    43    24    26    1
    44    24    27    1
    45    28    19   ar
    46    28    45    1
    47    29    30    1
    48    29    46    1
    49    29    47    1
    50    30    15    1
    51    30    48    1
    52    30    49    1
@<TRIPOS>MOLECULE
*****
 49 52 0 0 0
SMALL
GASTEIGER

@<TRIPOS>ATOM
      1 O          -1.7643   -2.1677   -1.8850 O.2     1  UNL11      -0.2752
      2 C          -1.4459   -1.2094   -1.1218 C.2     1  UNL11       0.2217
      3 C          -2.4244   -0.0677   -1.0231 C.3     1  UNL11       0.0727
      4 C          -2.3578    0.5656    0.3078 C.2     1  UNL11       0.1237
      5 N          -3.4138    0.6232    1.1290 N.2     1  UNL11      -0.0071
      6 N          -3.3196    1.1956    2.3421 N.am    1  UNL11      -0.0356
      7 C          -2.1643    1.7335    2.7824 C.2     1  UNL11       0.4383
      8 O          -2.0486    2.2736    3.9119 O.2     1  UNL11      -0.2116
      9 C          -1.0581    1.7003    1.9822 C.ar    1  UNL11       0.1004
     10 C           0.1240    2.2430    2.4180 C.ar    1  UNL11      -0.0441
     11 C           1.2620    2.2202    1.6192 C.ar    1  UNL11      -0.0608
     12 C           1.1679    1.6417    0.3881 C.ar    1  UNL11      -0.0611
     13 C          -0.0286    1.0991   -0.0377 C.ar    1  UNL11      -0.0518
     14 C          -1.1663    1.1098    0.7349 C.ar    1  UNL11       0.0194
     15 N          -0.2484   -1.2257   -0.4167 N.am    1  UNL11      -0.2982
     16 C           0.1393   -0.1605    0.4714 C.3     1  UNL11       0.0304
     17 C           1.3950    0.5110   -0.0259 C.3     1  UNL11       0.0280
     18 N           2.3868   -0.4905   -0.3058 N.pl3   1  UNL11      -0.3269
     19 C           3.7347   -0.1830    0.0553 C.ar    1  UNL11       0.0303
     20 C           4.6137   -1.1523    0.4175 C.ar    1  UNL11      -0.0406
     21 C           5.9246   -0.8575    0.8044 C.ar    1  UNL11      -0.0595
     22 C           6.3347    0.4558    0.8187 C.ar    1  UNL11      -0.0500
     23 C           5.4556    1.4489    0.4555 C.ar    1  UNL11       0.0566
     24 C           5.9113    2.8615    0.4940 C.3     1  UNL11       0.4175
     25 F           7.2273    2.9666    0.9158 F       1  UNL11      -0.1659
     26 F           5.1024    3.5948    1.3360 F       1  UNL11      -0.1659
     27 F           5.8068    3.4093   -0.7842 F       1  UNL11      -0.1659
     28 C           4.1477    1.1314    0.0710 C.ar    1  UNL11      -0.0290
     29 C           2.0744   -1.7351   -0.9126 C.3     1  UNL11       0.0280
     30 C           0.7061   -2.2945   -0.5668 C.3     1  UNL11       0.0304
     31 H          -2.2626    0.5848   -1.8730 H       1  UNL11       0.0425
     32 H          -3.4321   -0.5969   -1.1345 H       1  UNL11       0.0425
     33 H          -4.1407    1.2427    2.9886 H       1  UNL11       0.4829
     34 H           0.2437    2.7145    3.3882 H       1  UNL11       0.0627
     35 H           2.1841    2.6518    1.9777 H       1  UNL11       0.0618
     36 H           2.0521    1.6052   -0.2681 H       1  UNL11       0.0618
     37 H          -0.0421    0.6560   -1.0212 H       1  UNL11       0.0624
     38 H           0.4480   -0.6931    1.4241 H       1  UNL11       0.0480
     39 H          -0.6512    0.5195    0.7841 H       1  UNL11       0.0480
     40 H           1.2195    1.0671   -0.9763 H       1  UNL11       0.0479
     41 H           1.7076    1.2247    0.7648 H       1  UNL11       0.0479
     42 H           4.3294   -2.1760    0.4164 H       1  UNL11       0.0636
     43 H           6.6216   -1.6273    1.0847 H       1  UNL11       0.0618
     44 H           7.3515    0.7331    1.1115 H       1  UNL11       0.0623
     45 H           3.4672    1.9333   -0.2084 H       1  UNL11       0.0641
     46 H           2.0652   -1.5733   -2.0190 H       1  UNL11       0.0479
     47 H           2.8797   -2.5032   -0.7434 H       1  UNL11       0.0479
     48 H           0.4448   -3.0539   -1.3056 H       1  UNL11       0.0480
     49 H           0.8133   -2.7794    0.4248 H       1  UNL11       0.0480
@<TRIPOS>BOND
     1     1     2    2
     2     2     3    1
     3     2    15   am
     4     3     4    1
     5     3    31    1
     6     3    32    1
     7     4     5    2
     8     5     6    1
     9     6     7   am
    10     6    33    1
    11     7     8    2
    12     7     9    1
    13     9    10   ar
    14    10    11   ar
    15    10    34    1
    16    11    12   ar
    17    11    35    1
    18    12    13   ar
    19    12    36    1
    20    13    14   ar
    21    13    37    1
    22    14     4    1
    23    14     9   ar
    24    15    16    1
    25    16    17    1
    26    16    38    1
    27    16    39    1
    28    17    18    1
    29    17    40    1
    30    17    41    1
    31    18    19    1
    32    18    29    1
    33    19    20   ar
    34    20    21   ar
    35    20    42    1
    36    21    22   ar
    37    21    43    1
    38    22    23   ar
    39    22    44    1
    40    23    24    1
    41    23    28   ar
    42    24    25    1
    43    24    26    1
    44    24    27    1
    45    28    19   ar
    46    28    45    1
    47    29    30    1
    48    29    46    1
    49    29    47    1
    50    30    15    1
    51    30    48    1
    52    30    49    1
@<TRIPOS>MOLECULE
*****
 49 52 0 0 0
SMALL
GASTEIGER

@<TRIPOS>ATOM
      1 O          -1.7643   -2.1677   -1.8850 O.2     1  UNL11      -0.2752
      2 C          -1.4459   -1.2094   -1.1218 C.2     1  UNL11       0.2217
      3 C          -2.4244   -0.0677   -1.0231 C.3     1  UNL11       0.0727
      4 C          -1.8000    1.1963   -1.4584 C.2     1  UNL11       0.1237
      5 N          -2.2724    1.9138   -2.4853 N.2     1  UNL11      -0.0071
      6 N          -1.6898    3.0693   -2.8511 N.am    1  UNL11      -0.0356
      7 C          -0.6107    3.5532   -2.2035 C.2     1  UNL11       0.4383
      8 O          -0.0475    4.6307   -2.5241 O.2     1  UNL11      -0.2116
      9 C          -0.0905    2.8584   -1.1492 C.ar    1  UNL11       0.1004
     10 C           1.0064    3.3396   -0.4808 C.ar    1  UNL11      -0.0441
     11 C           1.5523    2.6478    0.5950 C.ar    1  UNL11      -0.0608
     12 C           0.9639    1.4752    0.9663 C.ar    1  UNL11      -0.0611
     13 C          -0.1403    1.0026    0.2844 C.ar    1  UNL11      -0.0518
     14 C          -0.6971    1.6696   -0.7816 C.ar    1  UNL11       0.0194
     15 N          -0.2484   -1.2257   -0.4167 N.am    1  UNL11      -0.2982
     16 C           0.1393   -0.1605    0.4714 C.3     1  UNL11       0.0304
     17 C           1.3950    0.5110   -0.0259 C.3     1  UNL11       0.0280
     18 N           2.3868   -0.4905   -0.3058 N.pl3   1  UNL11      -0.3269
     19 C           3.7347   -0.1830    0.0553 C.ar    1  UNL11       0.0303
     20 C           4.6137   -1.1523    0.4175 C.ar    1  UNL11      -0.0406
     21 C           5.9246   -0.8575    0.8044 C.ar    1  UNL11      -0.0595
     22 C           6.3347    0.4558    0.8187 C.ar    1  UNL11      -0.0500
     23 C           5.4556    1.4489    0.4555 C.ar    1  UNL11       0.0566
     24 C           5.9113    2.8615    0.4940 C.3     1  UNL11       0.4175
     25 F           7.2273    2.9666    0.9158 F       1  UNL11      -0.1659
     26 F           5.1024    3.5948    1.3360 F       1  UNL11      -0.1659
     27 F           5.8068    3.4093   -0.7842 F       1  UNL11      -0.1659
     28 C           4.1477    1.1314    0.0710 C.ar    1  UNL11      -0.0290
     29 C           2.0744   -1.7351   -0.9126 C.3     1  UNL11       0.0280
     30 C           0.7061   -2.2945   -0.5668 C.3     1  UNL11       0.0304
     31 H          -3.3300   -0.3586   -1.5421 H       1  UNL11       0.0425
     32 H          -2.6286   -0.0152    0.1010 H       1  UNL11       0.0425
     33 H          -2.0547    3.6350   -3.6519 H       1  UNL11       0.4829
     34 H           1.5073    4.2661   -0.7429 H       1  UNL11       0.0627
     35 H           2.4157    3.0409    1.1097 H       1  UNL11       0.0618
     36 H           1.3705    0.9043    1.8162 H       1  UNL11       0.0618
     37 H          -0.5618    0.0693    0.6234 H       1  UNL11       0.0624
     38 H           0.4480   -0.6931    1.4241 H       1  UNL11       0.0480
     39 H          -0.6512    0.5195    0.7841 H       1  UNL11       0.0480
     40 H           1.2195    1.0671   -0.9763 H       1  UNL11       0.0479
     41 H           1.7076    1.2247    0.7648 H       1  UNL11       0.0479
     42 H           4.3294   -2.1760    0.4164 H       1  UNL11       0.0636
     43 H           6.6216   -1.6273    1.0847 H       1  UNL11       0.0618
     44 H           7.3515    0.7331    1.1115 H       1  UNL11       0.0623
     45 H           3.4672    1.9333   -0.2084 H       1  UNL11       0.0641
     46 H           2.0652   -1.5733   -2.0190 H       1  UNL11       0.0479
     47 H           2.8797   -2.5032   -0.7434 H       1  UNL11       0.0479
     48 H           0.4448   -3.0539   -1.3056 H       1  UNL11       0.0480
     49 H           0.8133   -2.7794    0.4248 H       1  UNL11       0.0480
@<TRIPOS>BOND
     1     1     2    2
     2     2     3    1
     3     2    15   am
     4     3     4    1
     5     3    31    1
     6     3    32    1
     7     4     5    2
     8     5     6    1
     9     6     7   am
    10     6    33    1
    11     7     8    2
    12     7     9    1
    13     9    10   ar
    14    10    11   ar
    15    10    34    1
    16    11    12   ar
    17    11    35    1
    18    12    13   ar
    19    12    36    1
    20    13    14   ar
    21    13    37    1
    22    14     4    1
    23    14     9   ar
    24    15    16    1
    25    16    17    1
    26    16    38    1
    27    16    39    1
    28    17    18    1
    29    17    40    1
    30    17    41    1
    31    18    19    1
    32    18    29    1
    33    19    20   ar
    34    20    21   ar
    35    20    42    1
    36    21    22   ar
    37    21    43    1
    38    22    23   ar
    39    22    44    1
    40    23    24    1
    41    23    28   ar
    42    24    25    1
    43    24    26    1
    44    24    27    1
    45    28    19   ar
    46    28    45    1
    47    29    30    1
    48    29    46    1
    49    29    47    1
    50    30    15    1
    51    30    48    1
    52    30    49    1
@<TRIPOS>MOLECULE
*****
 49 52 0 0 0
SMALL
GASTEIGER

@<TRIPOS>ATOM
      1 O          -1.7643   -2.1677   -1.8850 O.2     1  UNL11      -0.2752
      2 C          -1.4459   -1.2094   -1.1218 C.2     1  UNL11       0.2217
      3 C          -2.4244   -0.0677   -1.0231 C.3     1  UNL11       0.0727
      4 C          -1.8000    1.1963   -1.4584 C.2     1  UNL11       0.1237
      5 N          -2.2724    1.9138   -2.4853 N.2     1  UNL11      -0.0071
      6 N          -1.6898    3.0693   -2.8511 N.am    1  UNL11      -0.0356
      7 C          -0.6107    3.5532   -2.2035 C.2     1  UNL11       0.4383
      8 O          -0.0475    4.6307   -2.5241 O.2     1  UNL11      -0.2116
      9 C          -0.0905    2.8584   -1.1492 C.ar    1  UNL11       0.1004
     10 C           1.0064    3.3396   -0.4808 C.ar    1  UNL11      -0.0441
     11 C           1.5523    2.6478    0.5950 C.ar    1  UNL11      -0.0608
     12 C           0.9639    1.4752    0.9663 C.ar    1  UNL11      -0.0611
     13 C          -0.1403    1.0026    0.2844 C.ar    1  UNL11      -0.0518
     14 C          -0.6971    1.6696   -0.7816 C.ar    1  UNL11       0.0194
     15 N          -0.2484   -1.2257   -0.4167 N.am    1  UNL11      -0.2982
     16 C           0.1393   -0.1605    0.4714 C.3     1  UNL11       0.0304
     17 C           1.3950    0.5110   -0.0259 C.3     1  UNL11       0.0280
     18 N           2.3868   -0.4905   -0.3058 N.pl3   1  UNL11      -0.3269
     19 C           3.7347   -0.1830    0.0553 C.ar    1  UNL11       0.0303
     20 C           4.0232    0.6350    1.0998 C.ar    1  UNL11      -0.0406
     21 C           5.3379    0.9680    1.4397 C.ar    1  UNL11      -0.0595
     22 C           6.3700    0.4505    0.6913 C.ar    1  UNL11      -0.0500
     23 C           6.0938   -0.3786   -0.3704 C.ar    1  UNL11       0.0566
     24 C           7.2200   -0.9131   -1.1769 C.3     1  UNL11       0.4175
     25 F           8.4458   -0.4668   -0.7089 F       1  UNL11      -0.1659
     26 F           7.0728   -0.5416   -2.4964 F       1  UNL11      -0.1659
     27 F           7.2007   -2.3064   -1.1198 F       1  UNL11      -0.1659
     28 C           4.7700   -0.6994   -0.6930 C.ar    1  UNL11      -0.0290
     29 C           2.0744   -1.7351   -0.9126 C.3     1  UNL11       0.0280
     30 C           0.7061   -2.2945   -0.5668 C.3     1  UNL11       0.0304
     31 H          -3.3300   -0.3586   -1.5421 H       1  UNL11       0.0425
     32 H          -2.6286   -0.0152    0.1010 H       1  UNL11       0.0425
     33 H          -2.0547    3.6350   -3.6519 H       1  UNL11       0.4829
     34 H           1.5073    4.2661   -0.7429 H       1  UNL11       0.0627
     35 H           2.4157    3.0409    1.1097 H       1  UNL11       0.0618
     36 H           1.3705    0.9043    1.8162 H       1  UNL11       0.0618
     37 H          -0.5618    0.0693    0.6234 H       1  UNL11       0.0624
     38 H           0.4480   -0.6931    1.4241 H       1  UNL11       0.0480
     39 H          -0.6512    0.5195    0.7841 H       1  UNL11       0.0480
     40 H           1.2195    1.0671   -0.9763 H       1  UNL11       0.0479
     41 H           1.7076    1.2247    0.7648 H       1  UNL11       0.0479
     42 H           3.2499    1.0504    1.6984 H       1  UNL11       0.0636
     43 H           5.5649    1.6110    2.2716 H       1  UNL11       0.0618
     44 H           7.4141    0.6813    0.9220 H       1  UNL11       0.0623
     45 H           4.5738   -1.3540   -1.5398 H       1  UNL11       0.0641
     46 H           2.0652   -1.5733   -2.0190 H       1  UNL11       0.0479
     47 H           2.8797   -2.5032   -0.7434 H       1  UNL11       0.0479
     48 H           0.4448   -3.0539   -1.3056 H       1  UNL11       0.0480
     49 H           0.8133   -2.7794    0.4248 H       1  UNL11       0.0480
@<TRIPOS>BOND
     1     1     2    2
     2     2     3    1
     3     2    15   am
     4     3     4    1
     5     3    31    1
     6     3    32    1
     7     4     5    2
     8     5     6    1
     9     6     7   am
    10     6    33    1
    11     7     8    2
    12     7     9    1
    13     9    10   ar
    14    10    11   ar
    15    10    34    1
    16    11    12   ar
    17    11    35    1
    18    12    13   ar
    19    12    36    1
    20    13    14   ar
    21    13    37    1
    22    14     4    1
    23    14     9   ar
    24    15    16    1
    25    16    17    1
    26    16    38    1
    27    16    39    1
    28    17    18    1
    29    17    40    1
    30    17    41    1
    31    18    19    1
    32    18    29    1
    33    19    20   ar
    34    20    21   ar
    35    20    42    1
    36    21    22   ar
    37    21    43    1
    38    22    23   ar
    39    22    44    1
    40    23    24    1
    41    23    28   ar
    42    24    25    1
    43    24    26    1
    44    24    27    1
    45    28    19   ar
    46    28    45    1
    47    29    30    1
    48    29    46    1
    49    29    47    1
    50    30    15    1
    51    30    48    1
    52    30    49    1
@<TRIPOS>MOLECULE
*****
 49 52 0 0 0
SMALL
GASTEIGER

@<TRIPOS>ATOM
      1 O          -1.7643   -2.1677   -1.8850 O.2     1  UNL11      -0.2752
      2 C          -1.4459   -1.2094   -1.1218 C.2     1  UNL11       0.2217
      3 C          -2.4244   -0.0677   -1.0231 C.3     1  UNL11       0.0727
      4 C          -2.1304    0.9632   -2.0369 C.2     1  UNL11       0.1237
      5 N          -2.1585    0.7066   -3.3506 N.2     1  UNL11      -0.0071
      6 N          -1.8986    1.6701   -4.2519 N.am    1  UNL11      -0.0356
      7 C          -1.6000    2.9296   -3.8745 C.2     1  UNL11       0.4383
      8 O          -1.3539    3.8491   -4.6960 O.2     1  UNL11      -0.2116
      9 C          -1.5583    3.2423   -2.5458 C.ar    1  UNL11       0.1004
     10 C          -1.2567    4.5199   -2.1478 C.ar    1  UNL11      -0.0441
     11 C          -1.2085    4.8596   -0.8002 C.ar    1  UNL11      -0.0608
     12 C          -1.4701    3.8835    0.1153 C.ar    1  UNL11      -0.0611
     13 C          -1.7725    2.6014   -0.2997 C.ar    1  UNL11      -0.0518
     14 C          -1.8263    2.2428   -1.6263 C.ar    1  UNL11       0.0194
     15 N          -0.2484   -1.2257   -0.4167 N.am    1  UNL11      -0.2982
     16 C           0.1393   -0.1605    0.4714 C.3     1  UNL11       0.0304
     17 C           1.3950    0.5110   -0.0259 C.3     1  UNL11       0.0280
     18 N           2.3868   -0.4905   -0.3058 N.pl3   1  UNL11      -0.3269
     19 C           3.7347   -0.1830    0.0553 C.ar    1  UNL11       0.0303
     20 C           4.7895   -0.6832   -0.6379 C.ar    1  UNL11      -0.0406
     21 C           6.1118   -0.4147   -0.2717 C.ar    1  UNL11      -0.0595
     22 C           6.3500    0.3804    0.8255 C.ar    1  UNL11      -0.0500
     23 C           5.2922    0.8936    1.5386 C.ar    1  UNL11       0.0566
     24 C           5.5692    1.7352    2.7299 C.3     1  UNL11       0.4175
     25 F           6.9294    1.8804    2.9527 F       1  UNL11      -0.1659
     26 F           4.9808    1.1800    3.8463 F       1  UNL11      -0.1659
     27 F           5.0112    2.9984    2.5356 F       1  UNL11      -0.1659
     28 C           3.9759    0.6125    1.1541 C.ar    1  UNL11      -0.0290
     29 C           2.0744   -1.7351   -0.9126 C.3     1  UNL11       0.0280
     30 C           0.7061   -2.2945   -0.5668 C.3     1  UNL11       0.0304
     31 H          -3.4249   -0.4834   -1.0384 H       1  UNL11       0.0425
     32 H          -2.2032    0.3568    0.0156 H       1  UNL11       0.0425
     33 H          -1.9201    1.4762   -5.2798 H       1  UNL11       0.4829
     34 H          -1.0401    5.3266   -2.8408 H       1  UNL11       0.0627
     35 H          -0.9696    5.8698   -0.5045 H       1  UNL11       0.0618
     36 H          -1.4425    4.1206    1.1907 H       1  UNL11       0.0618
     37 H          -1.9694    1.8719    0.4702 H       1  UNL11       0.0624
     38 H           0.4480   -0.6931    1.4241 H       1  UNL11       0.0480
     39 H          -0.6512    0.5195    0.7841 H       1  UNL11       0.0480
     40 H           1.2195    1.0671   -0.9763 H       1  UNL11       0.0479
     41 H           1.7076    1.2247    0.7648 H       1  UNL11       0.0479
     42 H           4.6403   -1.2996   -1.4904 H       1  UNL11       0.0636
     43 H           6.9463   -0.8066   -0.8262 H       1  UNL11       0.0618
     44 H           7.3679    0.6194    1.1472 H       1  UNL11       0.0623
     45 H           3.1536    1.0255    1.7351 H       1  UNL11       0.0641
     46 H           2.0652   -1.5733   -2.0190 H       1  UNL11       0.0479
     47 H           2.8797   -2.5032   -0.7434 H       1  UNL11       0.0479
     48 H           0.4448   -3.0539   -1.3056 H       1  UNL11       0.0480
     49 H           0.8133   -2.7794    0.4248 H       1  UNL11       0.0480
@<TRIPOS>BOND
     1     1     2    2
     2     2     3    1
     3     2    15   am
     4     3     4    1
     5     3    31    1
     6     3    32    1
     7     4     5    2
     8     5     6    1
     9     6     7   am
    10     6    33    1
    11     7     8    2
    12     7     9    1
    13     9    10   ar
    14    10    11   ar
    15    10    34    1
    16    11    12   ar
    17    11    35    1
    18    12    13   ar
    19    12    36    1
    20    13    14   ar
    21    13    37    1
    22    14     4    1
    23    14     9   ar
    24    15    16    1
    25    16    17    1
    26    16    38    1
    27    16    39    1
    28    17    18    1
    29    17    40    1
    30    17    41    1
    31    18    19    1
    32    18    29    1
    33    19    20   ar
    34    20    21   ar
    35    20    42    1
    36    21    22   ar
    37    21    43    1
    38    22    23   ar
    39    22    44    1
    40    23    24    1
    41    23    28   ar
    42    24    25    1
    43    24    26    1
    44    24    27    1
    45    28    19   ar
    46    28    45    1
    47    29    30    1
    48    29    46    1
    49    29    47    1
    50    30    15    1
    51    30    48    1
    52    30    49    1
@<TRIPOS>MOLECULE
*****
 49 52 0 0 0
SMALL
GASTEIGER

@<TRIPOS>ATOM
      1 O          -2.2542   -0.2420   -1.0083 O.2     1  UNL11      -0.2752
      2 C          -1.4459   -1.2094   -1.1218 C.2     1  UNL11       0.2217
      3 C          -1.8500   -2.3250   -2.0507 C.3     1  UNL11       0.0727
      4 C          -1.3582   -2.0717   -3.4185 C.2     1  UNL11       0.1237
      5 N          -2.0794   -1.4054   -4.3288 N.2     1  UNL11      -0.0071
      6 N          -1.5993   -1.1784   -5.5642 N.am    1  UNL11      -0.0356
      7 C          -0.3777   -1.6092   -5.9383 C.2     1  UNL11       0.4383
      8 O           0.0954   -1.4098   -7.0861 O.2     1  UNL11      -0.2116
      9 C           0.3971   -2.2939   -5.0464 C.ar    1  UNL11       0.1004
     10 C           1.6423   -2.7371   -5.4134 C.ar    1  UNL11      -0.0441
     11 C           2.4474   -3.4365   -4.5210 C.ar    1  UNL11      -0.0608
     12 C           1.9616   -3.6691   -3.2684 C.ar    1  UNL11      -0.0611
     13 C           0.7062   -3.2170   -2.9123 C.ar    1  UNL11      -0.0518
     14 C          -0.1070   -2.5232   -3.7777 C.ar    1  UNL11       0.0194
     15 N          -0.2484   -1.2257   -0.4167 N.am    1  UNL11      -0.2982
     16 C           0.1393   -0.1605    0.4714 C.3     1  UNL11       0.0304
     17 C           1.3950    0.5110   -0.0259 C.3     1  UNL11       0.0280
     18 N           2.3868   -0.4905   -0.3058 N.pl3   1  UNL11      -0.3269
     19 C           3.7347   -0.1830    0.0553 C.ar    1  UNL11       0.0303
     20 C           4.6137   -1.1523    0.4175 C.ar    1  UNL11      -0.0406
     21 C           5.9246   -0.8575    0.8044 C.ar    1  UNL11      -0.0595
     22 C           6.3347    0.4558    0.8187 C.ar    1  UNL11      -0.0500
     23 C           5.4556    1.4489    0.4555 C.ar    1  UNL11       0.0566
     24 C           5.9113    2.8615    0.4940 C.3     1  UNL11       0.4175
     25 F           7.2273    2.9666    0.9158 F       1  UNL11      -0.1659
     26 F           5.1024    3.5948    1.3360 F       1  UNL11      -0.1659
     27 F           5.8068    3.4093   -0.7842 F       1  UNL11      -0.1659
     28 C           4.1477    1.1314    0.0710 C.ar    1  UNL11      -0.0290
     29 C           2.0744   -1.7351   -0.9126 C.3     1  UNL11       0.0280
     30 C           0.7061   -2.2945   -0.5668 C.3     1  UNL11       0.0304
     31 H          -1.5474   -3.2620   -1.5984 H       1  UNL11       0.0425
     32 H          -2.9912   -2.2490   -2.0446 H       1  UNL11       0.0425
     33 H          -2.1576   -0.6576   -6.2794 H       1  UNL11       0.4829
     34 H           2.0676   -2.5764   -6.3989 H       1  UNL11       0.0627
     35 H           3.4248   -3.7780   -4.8264 H       1  UNL11       0.0618
     36 H           2.5757   -4.2181   -2.5368 H       1  UNL11       0.0618
     37 H           0.3757   -3.4317   -1.9081 H       1  UNL11       0.0624
     38 H           0.4480   -0.6931    1.4241 H       1  UNL11       0.0480
     39 H          -0.6512    0.5195    0.7841 H       1  UNL11       0.0480
     40 H           1.2195    1.0671   -0.9763 H       1  UNL11       0.0479
     41 H           1.7076    1.2247    0.7648 H       1  UNL11       0.0479
     42 H           4.3294   -2.1760    0.4164 H       1  UNL11       0.0636
     43 H           6.6216   -1.6273    1.0847 H       1  UNL11       0.0618
     44 H           7.3515    0.7331    1.1115 H       1  UNL11       0.0623
     45 H           3.4672    1.9333   -0.2084 H       1  UNL11       0.0641
     46 H           2.0652   -1.5733   -2.0190 H       1  UNL11       0.0479
     47 H           2.8797   -2.5032   -0.7434 H       1  UNL11       0.0479
     48 H           0.4448   -3.0539   -1.3056 H       1  UNL11       0.0480
     49 H           0.8133   -2.7794    0.4248 H       1  UNL11       0.0480
@<TRIPOS>BOND
     1     1     2    2
     2     2     3    1
     3     2    15   am
     4     3     4    1
     5     3    31    1
     6     3    32    1
     7     4     5    2
     8     5     6    1
     9     6     7   am
    10     6    33    1
    11     7     8    2
    12     7     9    1
    13     9    10   ar
    14    10    11   ar
    15    10    34    1
    16    11    12   ar
    17    11    35    1
    18    12    13   ar
    19    12    36    1
    20    13    14   ar
    21    13    37    1
    22    14     4    1
    23    14     9   ar
    24    15    16    1
    25    16    17    1
    26    16    38    1
    27    16    39    1
    28    17    18    1
    29    17    40    1
    30    17    41    1
    31    18    19    1
    32    18    29    1
    33    19    20   ar
    34    20    21   ar
    35    20    42    1
    36    21    22   ar
    37    21    43    1
    38    22    23   ar
    39    22    44    1
    40    23    24    1
    41    23    28   ar
    42    24    25    1
    43    24    26    1
    44    24    27    1
    45    28    19   ar
    46    28    45    1
    47    29    30    1
    48    29    46    1
    49    29    47    1
    50    30    15    1
    51    30    48    1
    52    30    49    1
@<TRIPOS>MOLECULE
*****
 49 52 0 0 0
SMALL
GASTEIGER

@<TRIPOS>ATOM
      1 O          -1.7643   -2.1677   -1.8850 O.2     1  UNL11      -0.2752
      2 C          -1.4459   -1.2094   -1.1218 C.2     1  UNL11       0.2217
      3 C          -2.4244   -0.0677   -1.0231 C.3     1  UNL11       0.0727
      4 C          -2.6524    0.5426   -2.3469 C.2     1  UNL11       0.1237
      5 N          -1.6615    1.0786   -3.0705 N.2     1  UNL11      -0.0071
      6 N          -1.8977    1.6164   -4.2802 N.am    1  UNL11      -0.0356
      7 C          -3.1355    1.6394   -4.8144 C.2     1  UNL11       0.4383
      8 O          -3.3836    2.1349   -5.9430 O.2     1  UNL11      -0.2116
      9 C          -4.1803    1.1055   -4.1158 C.ar    1  UNL11       0.1004
     10 C          -5.4446    1.1214   -4.6478 C.ar    1  UNL11      -0.0441
     11 C          -6.5227    0.5836   -3.9532 C.ar    1  UNL11      -0.0608
     12 C          -6.2854    0.0393   -2.7258 C.ar    1  UNL11      -0.0611
     13 C          -5.0074    0.0300   -2.2024 C.ar    1  UNL11      -0.0518
     14 C          -3.9266    0.5555   -2.8711 C.ar    1  UNL11       0.0194
     15 N          -0.2484   -1.2257   -0.4167 N.am    1  UNL11      -0.2982
     16 C           0.1393   -0.1605    0.4714 C.3     1  UNL11       0.0304
     17 C           1.3950    0.5110   -0.0259 C.3     1  UNL11       0.0280
     18 N           2.3868   -0.4905   -0.3058 N.pl3   1  UNL11      -0.3269
     19 C           3.7347   -0.1830    0.0553 C.ar    1  UNL11       0.0303
     20 C           4.0232    0.6350    1.0998 C.ar    1  UNL11      -0.0406
     21 C           5.3379    0.9680    1.4397 C.ar    1  UNL11      -0.0595
     22 C           6.3700    0.4505    0.6913 C.ar    1  UNL11      -0.0500
     23 C           6.0938   -0.3786   -0.3704 C.ar    1  UNL11       0.0566
     24 C           7.2200   -0.9131   -1.1769 C.3     1  UNL11       0.4175
     25 F           8.4458   -0.4668   -0.7089 F       1  UNL11      -0.1659
     26 F           7.0728   -0.5416   -2.4964 F       1  UNL11      -0.1659
     27 F           7.2007   -2.3064   -1.1198 F       1  UNL11      -0.1659
     28 C           4.7700   -0.6994   -0.6930 C.ar    1  UNL11      -0.0290
     29 C           2.0744   -1.7351   -0.9126 C.3     1  UNL11       0.0280
     30 C           0.7061   -2.2945   -0.5668 C.3     1  UNL11       0.0304
     31 H          -3.3045   -0.4265   -0.5027 H       1  UNL11       0.0425
     32 H          -1.8661    0.6781   -0.3596 H       1  UNL11       0.0425
     33 H          -1.1276    2.0357   -4.8508 H       1  UNL11       0.4829
     34 H          -5.6794    1.5453   -5.6189 H       1  UNL11       0.0627
     35 H          -7.5110    0.6044   -4.3867 H       1  UNL11       0.0618
     36 H          -7.1176   -0.3973   -2.1509 H       1  UNL11       0.0618
     37 H          -4.8816   -0.4134   -1.2271 H       1  UNL11       0.0624
     38 H           0.4480   -0.6931    1.4241 H       1  UNL11       0.0480
     39 H          -0.6512    0.5195    0.7841 H       1  UNL11       0.0480
     40 H           1.2195    1.0671   -0.9763 H       1  UNL11       0.0479
     41 H           1.7076    1.2247    0.7648 H       1  UNL11       0.0479
     42 H           3.2499    1.0504    1.6984 H       1  UNL11       0.0636
     43 H           5.5649    1.6110    2.2716 H       1  UNL11       0.0618
     44 H           7.4141    0.6813    0.9220 H       1  UNL11       0.0623
     45 H           4.5738   -1.3540   -1.5398 H       1  UNL11       0.0641
     46 H           2.0652   -1.5733   -2.0190 H       1  UNL11       0.0479
     47 H           2.8797   -2.5032   -0.7434 H       1  UNL11       0.0479
     48 H           0.4448   -3.0539   -1.3056 H       1  UNL11       0.0480
     49 H           0.8133   -2.7794    0.4248 H       1  UNL11       0.0480
@<TRIPOS>BOND
     1     1     2    2
     2     2     3    1
     3     2    15   am
     4     3     4    1
     5     3    31    1
     6     3    32    1
     7     4     5    2
     8     5     6    1
     9     6     7   am
    10     6    33    1
    11     7     8    2
    12     7     9    1
    13     9    10   ar
    14    10    11   ar
    15    10    34    1
    16    11    12   ar
    17    11    35    1
    18    12    13   ar
    19    12    36    1
    20    13    14   ar
    21    13    37    1
    22    14     4    1
    23    14     9   ar
    24    15    16    1
    25    16    17    1
    26    16    38    1
    27    16    39    1
    28    17    18    1
    29    17    40    1
    30    17    41    1
    31    18    19    1
    32    18    29    1
    33    19    20   ar
    34    20    21   ar
    35    20    42    1
    36    21    22   ar
    37    21    43    1
    38    22    23   ar
    39    22    44    1
    40    23    24    1
    41    23    28   ar
    42    24    25    1
    43    24    26    1
    44    24    27    1
    45    28    19   ar
    46    28    45    1
    47    29    30    1
    48    29    46    1
    49    29    47    1
    50    30    15    1
    51    30    48    1
    52    30    49    1
@<TRIPOS>MOLECULE
*****
 49 52 0 0 0
SMALL
GASTEIGER

@<TRIPOS>ATOM
      1 O          -1.7643   -2.1677   -1.8850 O.2     1  UNL11      -0.2752
      2 C          -1.4459   -1.2094   -1.1218 C.2     1  UNL11       0.2217
      3 C          -2.4244   -0.0677   -1.0231 C.3     1  UNL11       0.0727
      4 C          -3.1830    0.0821   -2.2796 C.2     1  UNL11       0.1237
      5 N          -2.6717   -0.2524   -3.4710 N.2     1  UNL11      -0.0071
      6 N          -3.3920   -0.1168   -4.5984 N.am    1  UNL11      -0.0356
      7 C          -4.6533    0.3591   -4.5788 C.2     1  UNL11       0.4383
      8 O          -5.3488    0.4950   -5.6175 O.2     1  UNL11      -0.2116
      9 C          -5.2204    0.7146   -3.3884 C.ar    1  UNL11       0.1004
     10 C          -6.5031    1.1994   -3.3538 C.ar    1  UNL11      -0.0441
     11 C          -7.0994    1.5676   -2.1527 C.ar    1  UNL11      -0.0608
     12 C          -6.3700    1.4324   -1.0087 C.ar    1  UNL11      -0.0611
     13 C          -5.0795    0.9428   -1.0583 C.ar    1  UNL11      -0.0518
     14 C          -4.4699    0.5722   -2.2340 C.ar    1  UNL11       0.0194
     15 N          -0.2484   -1.2257   -0.4167 N.am    1  UNL11      -0.2982
     16 C           0.1393   -0.1605    0.4714 C.3     1  UNL11       0.0304
     17 C           1.3950    0.5110   -0.0259 C.3     1  UNL11       0.0280
     18 N           2.3868   -0.4905   -0.3058 N.pl3   1  UNL11      -0.3269
     19 C           3.7347   -0.1830    0.0553 C.ar    1  UNL11       0.0303
     20 C           4.1952    1.0941    0.0666 C.ar    1  UNL11      -0.0406
     21 C           5.5213    1.4014    0.3863 C.ar    1  UNL11      -0.0595
     22 C           6.3850    0.3768    0.6980 C.ar    1  UNL11      -0.0500
     23 C           5.9338   -0.9221    0.6898 C.ar    1  UNL11       0.0566
     24 C           6.8852   -2.0156    1.0118 C.3     1  UNL11       0.4175
     25 F           8.1542   -1.5300    1.2851 F       1  UNL11      -0.1659
     26 F           6.9537   -2.9054   -0.0391 F       1  UNL11      -0.1659
     27 F           6.4218   -2.7086    2.1298 F       1  UNL11      -0.1659
     28 C           4.6019   -1.2073    0.3672 C.ar    1  UNL11      -0.0290
     29 C           2.0744   -1.7351   -0.9126 C.3     1  UNL11       0.0280
     30 C           0.7061   -2.2945   -0.5668 C.3     1  UNL11       0.0304
     31 H          -3.0110   -0.2078   -0.1228 H       1  UNL11       0.0425
     32 H          -1.7356    0.8361   -0.8932 H       1  UNL11       0.0425
     33 H          -2.9985   -0.3774   -5.5321 H       1  UNL11       0.4829
     34 H          -7.1188    1.3253   -4.2388 H       1  UNL11       0.0627
     35 H          -8.1098    1.9472   -2.1436 H       1  UNL11       0.0618
     36 H          -6.8142    1.7129   -0.0404 H       1  UNL11       0.0618
     37 H          -4.5519    0.8591   -0.1211 H       1  UNL11       0.0624
     38 H           0.4480   -0.6931    1.4241 H       1  UNL11       0.0480
     39 H          -0.6512    0.5195    0.7841 H       1  UNL11       0.0480
     40 H           1.2195    1.0671   -0.9763 H       1  UNL11       0.0479
     41 H           1.7076    1.2247    0.7648 H       1  UNL11       0.0479
     42 H           3.5543    1.9083   -0.1681 H       1  UNL11       0.0636
     43 H           5.8827    2.4144    0.4012 H       1  UNL11       0.0618
     44 H           7.4301    0.5700    0.9570 H       1  UNL11       0.0623
     45 H           4.2669   -2.2426    0.3626 H       1  UNL11       0.0641
     46 H           2.0652   -1.5733   -2.0190 H       1  UNL11       0.0479
     47 H           2.8797   -2.5032   -0.7434 H       1  UNL11       0.0479
     48 H           0.4448   -3.0539   -1.3056 H       1  UNL11       0.0480
     49 H           0.8133   -2.7794    0.4248 H       1  UNL11       0.0480
@<TRIPOS>BOND
     1     1     2    2
     2     2     3    1
     3     2    15   am
     4     3     4    1
     5     3    31    1
     6     3    32    1
     7     4     5    2
     8     5     6    1
     9     6     7   am
    10     6    33    1
    11     7     8    2
    12     7     9    1
    13     9    10   ar
    14    10    11   ar
    15    10    34    1
    16    11    12   ar
    17    11    35    1
    18    12    13   ar
    19    12    36    1
    20    13    14   ar
    21    13    37    1
    22    14     4    1
    23    14     9   ar
    24    15    16    1
    25    16    17    1
    26    16    38    1
    27    16    39    1
    28    17    18    1
    29    17    40    1
    30    17    41    1
    31    18    19    1
    32    18    29    1
    33    19    20   ar
    34    20    21   ar
    35    20    42    1
    36    21    22   ar
    37    21    43    1
    38    22    23   ar
    39    22    44    1
    40    23    24    1
    41    23    28   ar
    42    24    25    1
    43    24    26    1
    44    24    27    1
    45    28    19   ar
    46    28    45    1
    47    29    30    1
    48    29    46    1
    49    29    47    1
    50    30    15    1
    51    30    48    1
    52    30    49    1
@<TRIPOS>MOLECULE
*****
 49 52 0 0 0
SMALL
GASTEIGER

@<TRIPOS>ATOM
      1 O          -1.7643   -2.1677   -1.8850 O.2     1  UNL11      -0.2752
      2 C          -1.4459   -1.2094   -1.1218 C.2     1  UNL11       0.2217
      3 C          -2.4244   -0.0677   -1.0231 C.3     1  UNL11       0.0727
      4 C          -2.1304    0.9632   -2.0369 C.2     1  UNL11       0.1237
      5 N          -2.3926    2.2610   -1.8379 N.2     1  UNL11      -0.0071
      6 N          -2.1015    3.1798   -2.7756 N.am    1  UNL11      -0.0356
      7 C          -1.5361    2.8366   -3.9505 C.2     1  UNL11       0.4383
      8 O          -1.2530    3.6752   -4.8436 O.2     1  UNL11      -0.2116
      9 C          -1.2492    1.5254   -4.2020 C.ar    1  UNL11       0.1004
     10 C          -0.6731    1.1622   -5.3928 C.ar    1  UNL11      -0.0441
     11 C          -0.3731   -0.1672   -5.6694 C.ar    1  UNL11      -0.0608
     12 C          -0.6690   -1.1005   -4.7204 C.ar    1  UNL11      -0.0611
     13 C          -1.2488   -0.7206   -3.5258 C.ar    1  UNL11      -0.0518
     14 C          -1.5539    0.5875   -3.2306 C.ar    1  UNL11       0.0194
     15 N          -0.2484   -1.2257   -0.4167 N.am    1  UNL11      -0.2982
     16 C           0.1393   -0.1605    0.4714 C.3     1  UNL11       0.0304
     17 C           1.3950    0.5110   -0.0259 C.3     1  UNL11       0.0280
     18 N           2.3868   -0.4905   -0.3058 N.pl3   1  UNL11      -0.3269
     19 C           3.7347   -0.1830    0.0553 C.ar    1  UNL11       0.0303
     20 C           4.7895   -0.6832   -0.6379 C.ar    1  UNL11      -0.0406
     21 C           6.1118   -0.4147   -0.2717 C.ar    1  UNL11      -0.0595
     22 C           6.3500    0.3804    0.8255 C.ar    1  UNL11      -0.0500
     23 C           5.2922    0.8936    1.5386 C.ar    1  UNL11       0.0566
     24 C           5.5692    1.7352    2.7299 C.3     1  UNL11       0.4175
     25 F           6.9294    1.8804    2.9527 F       1  UNL11      -0.1659
     26 F           4.9808    1.1800    3.8463 F       1  UNL11      -0.1659
     27 F           5.0112    2.9984    2.5356 F       1  UNL11      -0.1659
     28 C           3.9759    0.6125    1.1541 C.ar    1  UNL11      -0.0290
     29 C           2.0744   -1.7351   -0.9126 C.3     1  UNL11       0.0280
     30 C           0.7061   -2.2945   -0.5668 C.3     1  UNL11       0.0304
     31 H          -3.4249   -0.4834   -1.0384 H       1  UNL11       0.0425
     32 H          -2.2032    0.3568    0.0156 H       1  UNL11       0.0425
     33 H          -2.3029    4.1954   -2.6257 H       1  UNL11       0.4829
     34 H          -0.4226    1.8703   -6.1763 H       1  UNL11       0.0627
     35 H           0.0803   -0.4354   -6.6115 H       1  UNL11       0.0618
     36 H          -0.4415   -2.1620   -4.9076 H       1  UNL11       0.0618
     37 H          -1.4605   -1.5034   -2.8144 H       1  UNL11       0.0624
     38 H           0.4480   -0.6931    1.4241 H       1  UNL11       0.0480
     39 H          -0.6512    0.5195    0.7841 H       1  UNL11       0.0480
     40 H           1.2195    1.0671   -0.9763 H       1  UNL11       0.0479
     41 H           1.7076    1.2247    0.7648 H       1  UNL11       0.0479
     42 H           4.6403   -1.2996   -1.4904 H       1  UNL11       0.0636
     43 H           6.9463   -0.8066   -0.8262 H       1  UNL11       0.0618
     44 H           7.3679    0.6194    1.1472 H       1  UNL11       0.0623
     45 H           3.1536    1.0255    1.7351 H       1  UNL11       0.0641
     46 H           2.0652   -1.5733   -2.0190 H       1  UNL11       0.0479
     47 H           2.8797   -2.5032   -0.7434 H       1  UNL11       0.0479
     48 H           0.4448   -3.0539   -1.3056 H       1  UNL11       0.0480
     49 H           0.8133   -2.7794    0.4248 H       1  UNL11       0.0480
@<TRIPOS>BOND
     1     1     2    2
     2     2     3    1
     3     2    15   am
     4     3     4    1
     5     3    31    1
     6     3    32    1
     7     4     5    2
     8     5     6    1
     9     6     7   am
    10     6    33    1
    11     7     8    2
    12     7     9    1
    13     9    10   ar
    14    10    11   ar
    15    10    34    1
    16    11    12   ar
    17    11    35    1
    18    12    13   ar
    19    12    36    1
    20    13    14   ar
    21    13    37    1
    22    14     4    1
    23    14     9   ar
    24    15    16    1
    25    16    17    1
    26    16    38    1
    27    16    39    1
    28    17    18    1
    29    17    40    1
    30    17    41    1
    31    18    19    1
    32    18    29    1
    33    19    20   ar
    34    20    21   ar
    35    20    42    1
    36    21    22   ar
    37    21    43    1
    38    22    23   ar
    39    22    44    1
    40    23    24    1
    41    23    28   ar
    42    24    25    1
    43    24    26    1
    44    24    27    1
    45    28    19   ar
    46    28    45    1
    47    29    30    1
    48    29    46    1
    49    29    47    1
    50    30    15    1
    51    30    48    1
    52    30    49    1
@<TRIPOS>MOLECULE
*****
 49 52 0 0 0
SMALL
GASTEIGER

@<TRIPOS>ATOM
      1 O          -2.2542   -0.2420   -1.0083 O.2     1  UNL11      -0.2752
      2 C          -1.4459   -1.2094   -1.1218 C.2     1  UNL11       0.2217
      3 C          -1.8500   -2.3250   -2.0507 C.3     1  UNL11       0.0727
      4 C          -1.2945   -3.6134   -1.5947 C.2     1  UNL11       0.1237
      5 N          -1.5954   -4.1431   -0.4024 N.2     1  UNL11      -0.0071
      6 N          -1.0836   -5.3261   -0.0191 N.am    1  UNL11      -0.0356
      7 C          -0.2498   -6.0267   -0.8140 C.2     1  UNL11       0.4383
      8 O           0.2418   -7.1349   -0.4807 O.2     1  UNL11      -0.2116
      9 C           0.0882   -5.5293   -2.0400 C.ar    1  UNL11       0.1004
     10 C           0.9347   -6.2321   -2.8592 C.ar    1  UNL11      -0.0441
     11 C           1.2922   -5.7436   -4.1112 C.ar    1  UNL11      -0.0608
     12 C           0.7755   -4.5434   -4.5009 C.ar    1  UNL11      -0.0611
     13 C          -0.0758   -3.8466   -3.6659 C.ar    1  UNL11      -0.0518
     14 C          -0.4432   -4.3102   -2.4243 C.ar    1  UNL11       0.0194
     15 N          -0.2484   -1.2257   -0.4167 N.am    1  UNL11      -0.2982
     16 C           0.1393   -0.1605    0.4714 C.3     1  UNL11       0.0304
     17 C           1.3950    0.5110   -0.0259 C.3     1  UNL11       0.0280
     18 N           2.3868   -0.4905   -0.3058 N.pl3   1  UNL11      -0.3269
     19 C           3.7347   -0.1830    0.0553 C.ar    1  UNL11       0.0303
     20 C           4.1952    1.0941    0.0666 C.ar    1  UNL11      -0.0406
     21 C           5.5213    1.4014    0.3863 C.ar    1  UNL11      -0.0595
     22 C           6.3850    0.3768    0.6980 C.ar    1  UNL11      -0.0500
     23 C           5.9338   -0.9221    0.6898 C.ar    1  UNL11       0.0566
     24 C           6.8852   -2.0156    1.0118 C.3     1  UNL11       0.4175
     25 F           8.1542   -1.5300    1.2851 F       1  UNL11      -0.1659
     26 F           6.9537   -2.9054   -0.0391 F       1  UNL11      -0.1659
     27 F           6.4218   -2.7086    2.1298 F       1  UNL11      -0.1659
     28 C           4.6019   -1.2073    0.3672 C.ar    1  UNL11      -0.0290
     29 C           2.0744   -1.7351   -0.9126 C.3     1  UNL11       0.0280
     30 C           0.7061   -2.2945   -0.5668 C.3     1  UNL11       0.0304
     31 H          -2.9258   -2.2835   -2.1738 H       1  UNL11       0.0425
     32 H          -1.3418   -2.0255   -3.0306 H       1  UNL11       0.0425
     33 H          -1.3157   -5.7456    0.9107 H       1  UNL11       0.4829
     34 H           1.3704   -7.1888   -2.5894 H       1  UNL11       0.0627
     35 H           1.9595   -6.3097   -4.7431 H       1  UNL11       0.0618
     36 H           1.0370   -4.1299   -5.4879 H       1  UNL11       0.0618
     37 H          -0.4520   -2.9028   -4.0283 H       1  UNL11       0.0624
     38 H           0.4480   -0.6931    1.4241 H       1  UNL11       0.0480
     39 H          -0.6512    0.5195    0.7841 H       1  UNL11       0.0480
     40 H           1.2195    1.0671   -0.9763 H       1  UNL11       0.0479
     41 H           1.7076    1.2247    0.7648 H       1  UNL11       0.0479
     42 H           3.5543    1.9083   -0.1681 H       1  UNL11       0.0636
     43 H           5.8827    2.4144    0.4012 H       1  UNL11       0.0618
     44 H           7.4301    0.5700    0.9570 H       1  UNL11       0.0623
     45 H           4.2669   -2.2426    0.3626 H       1  UNL11       0.0641
     46 H           2.0652   -1.5733   -2.0190 H       1  UNL11       0.0479
     47 H           2.8797   -2.5032   -0.7434 H       1  UNL11       0.0479
     48 H           0.4448   -3.0539   -1.3056 H       1  UNL11       0.0480
     49 H           0.8133   -2.7794    0.4248 H       1  UNL11       0.0480
@<TRIPOS>BOND
     1     1     2    2
     2     2     3    1
     3     2    15   am
     4     3     4    1
     5     3    31    1
     6     3    32    1
     7     4     5    2
     8     5     6    1
     9     6     7   am
    10     6    33    1
    11     7     8    2
    12     7     9    1
    13     9    10   ar
    14    10    11   ar
    15    10    34    1
    16    11    12   ar
    17    11    35    1
    18    12    13   ar
    19    12    36    1
    20    13    14   ar
    21    13    37    1
    22    14     4    1
    23    14     9   ar
    24    15    16    1
    25    16    17    1
    26    16    38    1
    27    16    39    1
    28    17    18    1
    29    17    40    1
    30    17    41    1
    31    18    19    1
    32    18    29    1
    33    19    20   ar
    34    20    21   ar
    35    20    42    1
    36    21    22   ar
    37    21    43    1
    38    22    23   ar
    39    22    44    1
    40    23    24    1
    41    23    28   ar
    42    24    25    1
    43    24    26    1
    44    24    27    1
    45    28    19   ar
    46    28    45    1
    47    29    30    1
    48    29    46    1
    49    29    47    1
    50    30    15    1
    51    30    48    1
    52    30    49    1
@<TRIPOS>MOLECULE
*****
 49 52 0 0 0
SMALL
GASTEIGER

@<TRIPOS>ATOM
      1 O          -2.2542   -0.2420   -1.0083 O.2     1  UNL11      -0.2752
      2 C          -1.4459   -1.2094   -1.1218 C.2     1  UNL11       0.2217
      3 C          -1.8500   -2.3250   -2.0507 C.3     1  UNL11       0.0727
      4 C          -0.6628   -2.9614   -2.6525 C.2     1  UNL11       0.1237
      5 N          -0.1328   -2.5435   -3.8089 N.2     1  UNL11      -0.0071
      6 N           0.9580   -3.1353   -4.3267 N.am    1  UNL11      -0.0356
      7 C           1.5625   -4.1694   -3.7078 C.2     1  UNL11       0.4383
      8 O           2.5835   -4.7399   -4.1693 O.2     1  UNL11      -0.2116
      9 C           1.0604   -4.6333   -2.5256 C.ar    1  UNL11       0.1004
     10 C           1.6660   -5.6841   -1.8847 C.ar    1  UNL11      -0.0441
     11 C           1.1710   -6.1722   -0.6804 C.ar    1  UNL11      -0.0608
     12 C           0.0640   -5.5745   -0.1546 C.ar    1  UNL11      -0.0611
     13 C          -0.5355   -4.5172   -0.8106 C.ar    1  UNL11      -0.0518
     14 C          -0.0634   -4.0178   -2.0018 C.ar    1  UNL11       0.0194
     15 N          -0.2484   -1.2257   -0.4167 N.am    1  UNL11      -0.2982
     16 C           0.1393   -0.1605    0.4714 C.3     1  UNL11       0.0304
     17 C           1.3950    0.5110   -0.0259 C.3     1  UNL11       0.0280
     18 N           2.3868   -0.4905   -0.3058 N.pl3   1  UNL11      -0.3269
     19 C           3.7347   -0.1830    0.0553 C.ar    1  UNL11       0.0303
     20 C           4.6137   -1.1523    0.4175 C.ar    1  UNL11      -0.0406
     21 C           5.9246   -0.8575    0.8044 C.ar    1  UNL11      -0.0595
     22 C           6.3347    0.4558    0.8187 C.ar    1  UNL11      -0.0500
     23 C           5.4556    1.4489    0.4555 C.ar    1  UNL11       0.0566
     24 C           5.9113    2.8615    0.4940 C.3     1  UNL11       0.4175
     25 F           7.2273    2.9666    0.9158 F       1  UNL11      -0.1659
     26 F           5.1024    3.5948    1.3360 F       1  UNL11      -0.1659
     27 F           5.8068    3.4093   -0.7842 F       1  UNL11      -0.1659
     28 C           4.1477    1.1314    0.0710 C.ar    1  UNL11      -0.0290
     29 C           2.0744   -1.7351   -0.9126 C.3     1  UNL11       0.0280
     30 C           0.7061   -2.2945   -0.5668 C.3     1  UNL11       0.0304
     31 H          -2.5239   -2.9804   -1.5117 H       1  UNL11       0.0425
     32 H          -2.4287   -1.7691   -2.8657 H       1  UNL11       0.0425
     33 H           1.3774   -2.8127   -5.2292 H       1  UNL11       0.4829
     34 H           2.5466   -6.1904   -2.2672 H       1  UNL11       0.0627
     35 H           1.6600   -6.9998   -0.1895 H       1  UNL11       0.0618
     36 H          -0.3517   -5.9358    0.7995 H       1  UNL11       0.0618
     37 H          -1.4085   -4.0856   -0.3466 H       1  UNL11       0.0624
     38 H           0.4480   -0.6931    1.4241 H       1  UNL11       0.0480
     39 H          -0.6512    0.5195    0.7841 H       1  UNL11       0.0480
     40 H           1.2195    1.0671   -0.9763 H       1  UNL11       0.0479
     41 H           1.7076    1.2247    0.7648 H       1  UNL11       0.0479
     42 H           4.3294   -2.1760    0.4164 H       1  UNL11       0.0636
     43 H           6.6216   -1.6273    1.0847 H       1  UNL11       0.0618
     44 H           7.3515    0.7331    1.1115 H       1  UNL11       0.0623
     45 H           3.4672    1.9333   -0.2084 H       1  UNL11       0.0641
     46 H           2.0652   -1.5733   -2.0190 H       1  UNL11       0.0479
     47 H           2.8797   -2.5032   -0.7434 H       1  UNL11       0.0479
     48 H           0.4448   -3.0539   -1.3056 H       1  UNL11       0.0480
     49 H           0.8133   -2.7794    0.4248 H       1  UNL11       0.0480
@<TRIPOS>BOND
     1     1     2    2
     2     2     3    1
     3     2    15   am
     4     3     4    1
     5     3    31    1
     6     3    32    1
     7     4     5    2
     8     5     6    1
     9     6     7   am
    10     6    33    1
    11     7     8    2
    12     7     9    1
    13     9    10   ar
    14    10    11   ar
    15    10    34    1
    16    11    12   ar
    17    11    35    1
    18    12    13   ar
    19    12    36    1
    20    13    14   ar
    21    13    37    1
    22    14     4    1
    23    14     9   ar
    24    15    16    1
    25    16    17    1
    26    16    38    1
    27    16    39    1
    28    17    18    1
    29    17    40    1
    30    17    41    1
    31    18    19    1
    32    18    29    1
    33    19    20   ar
    34    20    21   ar
    35    20    42    1
    36    21    22   ar
    37    21    43    1
    38    22    23   ar
    39    22    44    1
    40    23    24    1
    41    23    28   ar
    42    24    25    1
    43    24    26    1
    44    24    27    1
    45    28    19   ar
    46    28    45    1
    47    29    30    1
    48    29    46    1
    49    29    47    1
    50    30    15    1
    51    30    48    1
    52    30    49    1
@<TRIPOS>MOLECULE
*****
 49 52 0 0 0
SMALL
GASTEIGER

@<TRIPOS>ATOM
      1 O          -2.2542   -0.2420   -1.0083 O.2     1  UNL11      -0.2752
      2 C          -1.4459   -1.2094   -1.1218 C.2     1  UNL11       0.2217
      3 C          -1.8500   -2.3250   -2.0507 C.3     1  UNL11       0.0727
      4 C          -2.0191   -1.8242   -3.4282 C.2     1  UNL11       0.1237
      5 N          -2.8968   -0.8623   -3.7396 N.2     1  UNL11      -0.0071
      6 N          -3.0196   -0.4168   -5.0025 N.am    1  UNL11      -0.0356
      7 C          -2.2686   -0.9162   -6.0047 C.2     1  UNL11       0.4383
      8 O          -2.3626   -0.5173   -7.1933 O.2     1  UNL11      -0.2116
      9 C          -1.3587   -1.8992   -5.7388 C.ar    1  UNL11       0.1004
     10 C          -0.5874   -2.4156   -6.7488 C.ar    1  UNL11      -0.0441
     11 C           0.3447   -3.4171   -6.5000 C.ar    1  UNL11      -0.0608
     12 C           0.4695   -3.8713   -5.2204 C.ar    1  UNL11      -0.0611
     13 C          -0.3135   -3.3421   -4.2133 C.ar    1  UNL11      -0.0518
     14 C          -1.2411   -2.3514   -4.4358 C.ar    1  UNL11       0.0194
     15 N          -0.2484   -1.2257   -0.4167 N.am    1  UNL11      -0.2982
     16 C           0.1393   -0.1605    0.4714 C.3     1  UNL11       0.0304
     17 C           1.3950    0.5110   -0.0259 C.3     1  UNL11       0.0280
     18 N           2.3868   -0.4905   -0.3058 N.pl3   1  UNL11      -0.3269
     19 C           3.7347   -0.1830    0.0553 C.ar    1  UNL11       0.0303
     20 C           4.7895   -0.6832   -0.6379 C.ar    1  UNL11      -0.0406
     21 C           6.1118   -0.4147   -0.2717 C.ar    1  UNL11      -0.0595
     22 C           6.3500    0.3804    0.8255 C.ar    1  UNL11      -0.0500
     23 C           5.2922    0.8936    1.5386 C.ar    1  UNL11       0.0566
     24 C           5.5692    1.7352    2.7299 C.3     1  UNL11       0.4175
     25 F           6.9294    1.8804    2.9527 F       1  UNL11      -0.1659
     26 F           4.9808    1.1800    3.8463 F       1  UNL11      -0.1659
     27 F           5.0112    2.9984    2.5356 F       1  UNL11      -0.1659
     28 C           3.9759    0.6125    1.1541 C.ar    1  UNL11      -0.0290
     29 C           2.0744   -1.7351   -0.9126 C.3     1  UNL11       0.0280
     30 C           0.7061   -2.2945   -0.5668 C.3     1  UNL11       0.0304
     31 H          -1.1474   -3.1394   -1.9197 H       1  UNL11       0.0425
     32 H          -2.8713   -2.6316   -1.6373 H       1  UNL11       0.0425
     33 H          -3.7028    0.3352   -5.2519 H       1  UNL11       0.4829
     34 H          -0.6545   -2.0859   -7.7806 H       1  UNL11       0.0627
     35 H           0.9435   -3.8122   -7.3065 H       1  UNL11       0.0618
     36 H           1.2007   -4.6623   -4.9896 H       1  UNL11       0.0618
     37 H          -0.1705   -3.7418   -3.2215 H       1  UNL11       0.0624
     38 H           0.4480   -0.6931    1.4241 H       1  UNL11       0.0480
     39 H          -0.6512    0.5195    0.7841 H       1  UNL11       0.0480
     40 H           1.2195    1.0671   -0.9763 H       1  UNL11       0.0479
     41 H           1.7076    1.2247    0.7648 H       1  UNL11       0.0479
     42 H           4.6403   -1.2996   -1.4904 H       1  UNL11       0.0636
     43 H           6.9463   -0.8066   -0.8262 H       1  UNL11       0.0618
     44 H           7.3679    0.6194    1.1472 H       1  UNL11       0.0623
     45 H           3.1536    1.0255    1.7351 H       1  UNL11       0.0641
     46 H           2.0652   -1.5733   -2.0190 H       1  UNL11       0.0479
     47 H           2.8797   -2.5032   -0.7434 H       1  UNL11       0.0479
     48 H           0.4448   -3.0539   -1.3056 H       1  UNL11       0.0480
     49 H           0.8133   -2.7794    0.4248 H       1  UNL11       0.0480
@<TRIPOS>BOND
     1     1     2    2
     2     2     3    1
     3     2    15   am
     4     3     4    1
     5     3    31    1
     6     3    32    1
     7     4     5    2
     8     5     6    1
     9     6     7   am
    10     6    33    1
    11     7     8    2
    12     7     9    1
    13     9    10   ar
    14    10    11   ar
    15    10    34    1
    16    11    12   ar
    17    11    35    1
    18    12    13   ar
    19    12    36    1
    20    13    14   ar
    21    13    37    1
    22    14     4    1
    23    14     9   ar
    24    15    16    1
    25    16    17    1
    26    16    38    1
    27    16    39    1
    28    17    18    1
    29    17    40    1
    30    17    41    1
    31    18    19    1
    32    18    29    1
    33    19    20   ar
    34    20    21   ar
    35    20    42    1
    36    21    22   ar
    37    21    43    1
    38    22    23   ar
    39    22    44    1
    40    23    24    1
    41    23    28   ar
    42    24    25    1
    43    24    26    1
    44    24    27    1
    45    28    19   ar
    46    28    45    1
    47    29    30    1
    48    29    46    1
    49    29    47    1
    50    30    15    1
    51    30    48    1
    52    30    49    1
@<TRIPOS>MOLECULE
*****
 49 52 0 0 0
SMALL
GASTEIGER

@<TRIPOS>ATOM
      1 O          -1.7643   -2.1677   -1.8850 O.2     1  UNL11      -0.2752
      2 C          -1.4459   -1.2094   -1.1218 C.2     1  UNL11       0.2217
      3 C          -2.4244   -0.0677   -1.0231 C.3     1  UNL11       0.0727
      4 C          -2.1304    0.9632   -2.0369 C.2     1  UNL11       0.1237
      5 N          -3.0846    1.7318   -2.5767 N.2     1  UNL11      -0.0071
      6 N          -2.7845    2.6725   -3.4896 N.am    1  UNL11      -0.0356
      7 C          -1.5170    2.8819   -3.8989 C.2     1  UNL11       0.4383
      8 O          -1.2090    3.7548   -4.7499 O.2     1  UNL11      -0.2116
      9 C          -0.5075    2.1237   -3.3785 C.ar    1  UNL11       0.1004
     10 C           0.7867    2.3267   -3.7854 C.ar    1  UNL11      -0.0441
     11 C           1.8295    1.5657   -3.2686 C.ar    1  UNL11      -0.0608
     12 C           1.5271    0.6102   -2.3440 C.ar    1  UNL11      -0.0611
     13 C           0.2195    0.4167   -1.9434 C.ar    1  UNL11      -0.0518
     14 C          -0.8273    1.1574   -2.4404 C.ar    1  UNL11       0.0194
     15 N          -0.2484   -1.2257   -0.4167 N.am    1  UNL11      -0.2982
     16 C           0.1393   -0.1605    0.4714 C.3     1  UNL11       0.0304
     17 C           1.3950    0.5110   -0.0259 C.3     1  UNL11       0.0280
     18 N           2.3868   -0.4905   -0.3058 N.pl3   1  UNL11      -0.3269
     19 C           3.7347   -0.1830    0.0553 C.ar    1  UNL11       0.0303
     20 C           4.7895   -0.6832   -0.6379 C.ar    1  UNL11      -0.0406
     21 C           6.1118   -0.4147   -0.2717 C.ar    1  UNL11      -0.0595
     22 C           6.3500    0.3804    0.8255 C.ar    1  UNL11      -0.0500
     23 C           5.2922    0.8936    1.5386 C.ar    1  UNL11       0.0566
     24 C           5.5692    1.7352    2.7299 C.3     1  UNL11       0.4175
     25 F           6.9294    1.8804    2.9527 F       1  UNL11      -0.1659
     26 F           4.9808    1.1800    3.8463 F       1  UNL11      -0.1659
     27 F           5.0112    2.9984    2.5356 F       1  UNL11      -0.1659
     28 C           3.9759    0.6125    1.1541 C.ar    1  UNL11      -0.0290
     29 C           2.0744   -1.7351   -0.9126 C.3     1  UNL11       0.0280
     30 C           0.7061   -2.2945   -0.5668 C.3     1  UNL11       0.0304
     31 H          -3.4249   -0.4834   -1.0384 H       1  UNL11       0.0425
     32 H          -2.2032    0.3568    0.0156 H       1  UNL11       0.0425
     33 H          -3.5254    3.2769   -3.9142 H       1  UNL11       0.4829
     34 H           1.0726    3.0735   -4.5191 H       1  UNL11       0.0627
     35 H           2.8422    1.7387   -3.5998 H       1  UNL11       0.0618
     36 H           2.3307   -0.0080   -1.9133 H       1  UNL11       0.0618
     37 H           0.0418   -0.3541   -1.2100 H       1  UNL11       0.0624
     38 H           0.4480   -0.6931    1.4241 H       1  UNL11       0.0480
     39 H          -0.6512    0.5195    0.7841 H       1  UNL11       0.0480
     40 H           1.2195    1.0671   -0.9763 H       1  UNL11       0.0479
     41 H           1.7076    1.2247    0.7648 H       1  UNL11       0.0479
     42 H           4.6403   -1.2996   -1.4904 H       1  UNL11       0.0636
     43 H           6.9463   -0.8066   -0.8262 H       1  UNL11       0.0618
     44 H           7.3679    0.6194    1.1472 H       1  UNL11       0.0623
     45 H           3.1536    1.0255    1.7351 H       1  UNL11       0.0641
     46 H           2.0652   -1.5733   -2.0190 H       1  UNL11       0.0479
     47 H           2.8797   -2.5032   -0.7434 H       1  UNL11       0.0479
     48 H           0.4448   -3.0539   -1.3056 H       1  UNL11       0.0480
     49 H           0.8133   -2.7794    0.4248 H       1  UNL11       0.0480
@<TRIPOS>BOND
     1     1     2    2
     2     2     3    1
     3     2    15   am
     4     3     4    1
     5     3    31    1
     6     3    32    1
     7     4     5    2
     8     5     6    1
     9     6     7   am
    10     6    33    1
    11     7     8    2
    12     7     9    1
    13     9    10   ar
    14    10    11   ar
    15    10    34    1
    16    11    12   ar
    17    11    35    1
    18    12    13   ar
    19    12    36    1
    20    13    14   ar
    21    13    37    1
    22    14     4    1
    23    14     9   ar
    24    15    16    1
    25    16    17    1
    26    16    38    1
    27    16    39    1
    28    17    18    1
    29    17    40    1
    30    17    41    1
    31    18    19    1
    32    18    29    1
    33    19    20   ar
    34    20    21   ar
    35    20    42    1
    36    21    22   ar
    37    21    43    1
    38    22    23   ar
    39    22    44    1
    40    23    24    1
    41    23    28   ar
    42    24    25    1
    43    24    26    1
    44    24    27    1
    45    28    19   ar
    46    28    45    1
    47    29    30    1
    48    29    46    1
    49    29    47    1
    50    30    15    1
    51    30    48    1
    52    30    49    1
@<TRIPOS>MOLECULE
*****
 49 52 0 0 0
SMALL
GASTEIGER

@<TRIPOS>ATOM
      1 O          -2.2542   -0.2420   -1.0083 O.2     1  UNL11      -0.2752
      2 C          -1.4459   -1.2094   -1.1218 C.2     1  UNL11       0.2217
      3 C          -1.8500   -2.3250   -2.0507 C.3     1  UNL11       0.0727
      4 C          -2.0191   -1.8242   -3.4282 C.2     1  UNL11       0.1237
      5 N          -2.3898   -2.6184   -4.4403 N.2     1  UNL11      -0.0071
      6 N          -2.5484   -2.1307   -5.6834 N.am    1  UNL11      -0.0356
      7 C          -2.3424   -0.8280   -5.9635 C.2     1  UNL11       0.4383
      8 O          -2.4844   -0.3461   -7.1162 O.2     1  UNL11      -0.2116
      9 C          -1.9629    0.0234   -4.9656 C.ar    1  UNL11       0.1004
     10 C          -1.7508    1.3513   -5.2365 C.ar    1  UNL11      -0.0441
     11 C          -1.3635    2.2354   -4.2353 C.ar    1  UNL11      -0.0608
     12 C          -1.2005    1.7423   -2.9746 C.ar    1  UNL11      -0.0611
     13 C          -1.4176    0.4031   -2.7161 C.ar    1  UNL11      -0.0518
     14 C          -1.8013   -0.4891   -3.6899 C.ar    1  UNL11       0.0194
     15 N          -0.2484   -1.2257   -0.4167 N.am    1  UNL11      -0.2982
     16 C           0.1393   -0.1605    0.4714 C.3     1  UNL11       0.0304
     17 C           1.3950    0.5110   -0.0259 C.3     1  UNL11       0.0280
     18 N           2.3868   -0.4905   -0.3058 N.pl3   1  UNL11      -0.3269
     19 C           3.7347   -0.1830    0.0553 C.ar    1  UNL11       0.0303
     20 C           4.7895   -0.6832   -0.6379 C.ar    1  UNL11      -0.0406
     21 C           6.1118   -0.4147   -0.2717 C.ar    1  UNL11      -0.0595
     22 C           6.3500    0.3804    0.8255 C.ar    1  UNL11      -0.0500
     23 C           5.2922    0.8936    1.5386 C.ar    1  UNL11       0.0566
     24 C           5.5692    1.7352    2.7299 C.3     1  UNL11       0.4175
     25 F           6.9294    1.8804    2.9527 F       1  UNL11      -0.1659
     26 F           4.9808    1.1800    3.8463 F       1  UNL11      -0.1659
     27 F           5.0112    2.9984    2.5356 F       1  UNL11      -0.1659
     28 C           3.9759    0.6125    1.1541 C.ar    1  UNL11      -0.0290
     29 C           2.0744   -1.7351   -0.9126 C.3     1  UNL11       0.0280
     30 C           0.7061   -2.2945   -0.5668 C.3     1  UNL11       0.0304
     31 H          -1.1474   -3.1394   -1.9197 H       1  UNL11       0.0425
     32 H          -2.8713   -2.6316   -1.6373 H       1  UNL11       0.0425
     33 H          -2.8389   -2.7460   -6.4781 H       1  UNL11       0.4829
     34 H          -1.8666    1.7860   -6.2242 H       1  UNL11       0.0627
     35 H          -1.2010    3.2772   -4.4659 H       1  UNL11       0.0618
     36 H          -0.8968    2.4171   -2.1584 H       1  UNL11       0.0618
     37 H          -1.2722    0.0713   -1.7000 H       1  UNL11       0.0624
     38 H           0.4480   -0.6931    1.4241 H       1  UNL11       0.0480
     39 H          -0.6512    0.5195    0.7841 H       1  UNL11       0.0480
     40 H           1.2195    1.0671   -0.9763 H       1  UNL11       0.0479
     41 H           1.7076    1.2247    0.7648 H       1  UNL11       0.0479
     42 H           4.6403   -1.2996   -1.4904 H       1  UNL11       0.0636
     43 H           6.9463   -0.8066   -0.8262 H       1  UNL11       0.0618
     44 H           7.3679    0.6194    1.1472 H       1  UNL11       0.0623
     45 H           3.1536    1.0255    1.7351 H       1  UNL11       0.0641
     46 H           2.0652   -1.5733   -2.0190 H       1  UNL11       0.0479
     47 H           2.8797   -2.5032   -0.7434 H       1  UNL11       0.0479
     48 H           0.4448   -3.0539   -1.3056 H       1  UNL11       0.0480
     49 H           0.8133   -2.7794    0.4248 H       1  UNL11       0.0480
@<TRIPOS>BOND
     1     1     2    2
     2     2     3    1
     3     2    15   am
     4     3     4    1
     5     3    31    1
     6     3    32    1
     7     4     5    2
     8     5     6    1
     9     6     7   am
    10     6    33    1
    11     7     8    2
    12     7     9    1
    13     9    10   ar
    14    10    11   ar
    15    10    34    1
    16    11    12   ar
    17    11    35    1
    18    12    13   ar
    19    12    36    1
    20    13    14   ar
    21    13    37    1
    22    14     4    1
    23    14     9   ar
    24    15    16    1
    25    16    17    1
    26    16    38    1
    27    16    39    1
    28    17    18    1
    29    17    40    1
    30    17    41    1
    31    18    19    1
    32    18    29    1
    33    19    20   ar
    34    20    21   ar
    35    20    42    1
    36    21    22   ar
    37    21    43    1
    38    22    23   ar
    39    22    44    1
    40    23    24    1
    41    23    28   ar
    42    24    25    1
    43    24    26    1
    44    24    27    1
    45    28    19   ar
    46    28    45    1
    47    29    30    1
    48    29    46    1
    49    29    47    1
    50    30    15    1
    51    30    48    1
    52    30    49    1
@<TRIPOS>MOLECULE
*****
 49 52 0 0 0
SMALL
GASTEIGER

@<TRIPOS>ATOM
      1 O          -2.2542   -0.2420   -1.0083 O.2     1  UNL11      -0.2752
      2 C          -1.4459   -1.2094   -1.1218 C.2     1  UNL11       0.2217
      3 C          -1.8500   -2.3250   -2.0507 C.3     1  UNL11       0.0727
      4 C          -2.0191   -1.8242   -3.4282 C.2     1  UNL11       0.1237
      5 N          -2.3898   -2.6184   -4.4403 N.2     1  UNL11      -0.0071
      6 N          -2.5484   -2.1307   -5.6834 N.am    1  UNL11      -0.0356
      7 C          -2.3424   -0.8280   -5.9635 C.2     1  UNL11       0.4383
      8 O          -2.4844   -0.3461   -7.1162 O.2     1  UNL11      -0.2116
      9 C          -1.9629    0.0234   -4.9656 C.ar    1  UNL11       0.1004
     10 C          -1.7508    1.3513   -5.2365 C.ar    1  UNL11      -0.0441
     11 C          -1.3635    2.2354   -4.2353 C.ar    1  UNL11      -0.0608
     12 C          -1.2005    1.7423   -2.9746 C.ar    1  UNL11      -0.0611
     13 C          -1.4176    0.4031   -2.7161 C.ar    1  UNL11      -0.0518
     14 C          -1.8013   -0.4891   -3.6899 C.ar    1  UNL11       0.0194
     15 N          -0.2484   -1.2257   -0.4167 N.am    1  UNL11      -0.2982
     16 C           0.1393   -0.1605    0.4714 C.3     1  UNL11       0.0304
     17 C           1.3950    0.5110   -0.0259 C.3     1  UNL11       0.0280
     18 N           2.3868   -0.4905   -0.3058 N.pl3   1  UNL11      -0.3269
     19 C           3.7347   -0.1830    0.0553 C.ar    1  UNL11       0.0303
     20 C           4.0644    0.9993    0.6356 C.ar    1  UNL11      -0.0406
     21 C           5.3851    1.3223    0.9618 C.ar    1  UNL11      -0.0595
     22 C           6.3802    0.4133    0.6850 C.ar    1  UNL11      -0.0500
     23 C           6.0622   -0.7881    0.0964 C.ar    1  UNL11       0.0566
     24 C           7.1518   -1.7487   -0.2106 C.3     1  UNL11       0.4175
     25 F           8.3923   -1.2570    0.1637 F       1  UNL11      -0.1659
     26 F           7.1623   -2.0342   -1.5594 F       1  UNL11      -0.1659
     27 F           6.9172   -2.9392    0.4770 F       1  UNL11      -0.1659
     28 C           4.7331   -1.0913   -0.2215 C.ar    1  UNL11      -0.0290
     29 C           2.0744   -1.7351   -0.9126 C.3     1  UNL11       0.0280
     30 C           0.7061   -2.2945   -0.5668 C.3     1  UNL11       0.0304
     31 H          -1.1474   -3.1394   -1.9197 H       1  UNL11       0.0425
     32 H          -2.8713   -2.6316   -1.6373 H       1  UNL11       0.0425
     33 H          -2.8389   -2.7460   -6.4781 H       1  UNL11       0.4829
     34 H          -1.8666    1.7860   -6.2242 H       1  UNL11       0.0627
     35 H          -1.2010    3.2772   -4.4659 H       1  UNL11       0.0618
     36 H          -0.8968    2.4171   -2.1584 H       1  UNL11       0.0618
     37 H          -1.2722    0.0713   -1.7000 H       1  UNL11       0.0624
     38 H           0.4480   -0.6931    1.4241 H       1  UNL11       0.0480
     39 H          -0.6512    0.5195    0.7841 H       1  UNL11       0.0480
     40 H           1.2195    1.0671   -0.9763 H       1  UNL11       0.0479
     41 H           1.7076    1.2247    0.7648 H       1  UNL11       0.0479
     42 H           3.3203    1.7226    0.8636 H       1  UNL11       0.0636
     43 H           5.6436    2.2568    1.4277 H       1  UNL11       0.0618
     44 H           7.4268    0.6219    0.9251 H       1  UNL11       0.0623
     45 H           4.5042   -2.0461   -0.6908 H       1  UNL11       0.0641
     46 H           2.0652   -1.5733   -2.0190 H       1  UNL11       0.0479
     47 H           2.8797   -2.5032   -0.7434 H       1  UNL11       0.0479
     48 H           0.4448   -3.0539   -1.3056 H       1  UNL11       0.0480
     49 H           0.8133   -2.7794    0.4248 H       1  UNL11       0.0480
@<TRIPOS>BOND
     1     1     2    2
     2     2     3    1
     3     2    15   am
     4     3     4    1
     5     3    31    1
     6     3    32    1
     7     4     5    2
     8     5     6    1
     9     6     7   am
    10     6    33    1
    11     7     8    2
    12     7     9    1
    13     9    10   ar
    14    10    11   ar
    15    10    34    1
    16    11    12   ar
    17    11    35    1
    18    12    13   ar
    19    12    36    1
    20    13    14   ar
    21    13    37    1
    22    14     4    1
    23    14     9   ar
    24    15    16    1
    25    16    17    1
    26    16    38    1
    27    16    39    1
    28    17    18    1
    29    17    40    1
    30    17    41    1
    31    18    19    1
    32    18    29    1
    33    19    20   ar
    34    20    21   ar
    35    20    42    1
    36    21    22   ar
    37    21    43    1
    38    22    23   ar
    39    22    44    1
    40    23    24    1
    41    23    28   ar
    42    24    25    1
    43    24    26    1
    44    24    27    1
    45    28    19   ar
    46    28    45    1
    47    29    30    1
    48    29    46    1
    49    29    47    1
    50    30    15    1
    51    30    48    1
    52    30    49    1
@<TRIPOS>MOLECULE
*****
 49 52 0 0 0
SMALL
GASTEIGER

@<TRIPOS>ATOM
      1 O          -2.2542   -0.2420   -1.0083 O.2     1  UNL11      -0.2752
      2 C          -1.4459   -1.2094   -1.1218 C.2     1  UNL11       0.2217
      3 C          -1.8500   -2.3250   -2.0507 C.3     1  UNL11       0.0727
      4 C          -3.1631   -2.0467   -2.6633 C.2     1  UNL11       0.1237
      5 N          -3.3834   -0.9727   -3.4319 N.2     1  UNL11      -0.0071
      6 N          -4.5879   -0.7520   -3.9876 N.am    1  UNL11      -0.0356
      7 C          -5.6205   -1.5976   -3.7964 C.2     1  UNL11       0.4383
      8 O          -6.7561   -1.4156   -4.3047 O.2     1  UNL11      -0.2116
      9 C          -5.4469   -2.7077   -3.0203 C.ar    1  UNL11       0.1004
     10 C          -6.4887   -3.5769   -2.8182 C.ar    1  UNL11      -0.0441
     11 C          -6.3337   -4.7129   -2.0313 C.ar    1  UNL11      -0.0608
     12 C          -5.1135   -4.9375   -1.4656 C.ar    1  UNL11      -0.0611
     13 C          -4.0734   -4.0540   -1.6777 C.ar    1  UNL11      -0.0518
     14 C          -4.2035   -2.9249   -2.4521 C.ar    1  UNL11       0.0194
     15 N          -0.2484   -1.2257   -0.4167 N.am    1  UNL11      -0.2982
     16 C           0.1393   -0.1605    0.4714 C.3     1  UNL11       0.0304
     17 C           1.3950    0.5110   -0.0259 C.3     1  UNL11       0.0280
     18 N           2.3868   -0.4905   -0.3058 N.pl3   1  UNL11      -0.3269
     19 C           3.7347   -0.1830    0.0553 C.ar    1  UNL11       0.0303
     20 C           4.1952    1.0941    0.0666 C.ar    1  UNL11      -0.0406
     21 C           5.5213    1.4014    0.3863 C.ar    1  UNL11      -0.0595
     22 C           6.3850    0.3768    0.6980 C.ar    1  UNL11      -0.0500
     23 C           5.9338   -0.9221    0.6898 C.ar    1  UNL11       0.0566
     24 C           6.8852   -2.0156    1.0118 C.3     1  UNL11       0.4175
     25 F           8.1542   -1.5300    1.2851 F       1  UNL11      -0.1659
     26 F           6.9537   -2.9054   -0.0391 F       1  UNL11      -0.1659
     27 F           6.4218   -2.7086    2.1298 F       1  UNL11      -0.1659
     28 C           4.6019   -1.2073    0.3672 C.ar    1  UNL11      -0.0290
     29 C           2.0744   -1.7351   -0.9126 C.3     1  UNL11       0.0280
     30 C           0.7061   -2.2945   -0.5668 C.3     1  UNL11       0.0304
     31 H          -1.0294   -2.5025   -2.7358 H       1  UNL11       0.0425
     32 H          -1.9516   -3.2138   -1.3382 H       1  UNL11       0.0425
     33 H          -4.7661    0.0846   -4.5899 H       1  UNL11       0.4829
     34 H          -7.4760   -3.4368   -3.2467 H       1  UNL11       0.0627
     35 H          -7.1640   -5.3864   -1.8828 H       1  UNL11       0.0618
     36 H          -4.9571   -5.8298   -0.8388 H       1  UNL11       0.0618
     37 H          -3.1321   -4.2840   -1.2036 H       1  UNL11       0.0624
     38 H           0.4480   -0.6931    1.4241 H       1  UNL11       0.0480
     39 H          -0.6512    0.5195    0.7841 H       1  UNL11       0.0480
     40 H           1.2195    1.0671   -0.9763 H       1  UNL11       0.0479
     41 H           1.7076    1.2247    0.7648 H       1  UNL11       0.0479
     42 H           3.5543    1.9083   -0.1681 H       1  UNL11       0.0636
     43 H           5.8827    2.4144    0.4012 H       1  UNL11       0.0618
     44 H           7.4301    0.5700    0.9570 H       1  UNL11       0.0623
     45 H           4.2669   -2.2426    0.3626 H       1  UNL11       0.0641
     46 H           2.0652   -1.5733   -2.0190 H       1  UNL11       0.0479
     47 H           2.8797   -2.5032   -0.7434 H       1  UNL11       0.0479
     48 H           0.4448   -3.0539   -1.3056 H       1  UNL11       0.0480
     49 H           0.8133   -2.7794    0.4248 H       1  UNL11       0.0480
@<TRIPOS>BOND
     1     1     2    2
     2     2     3    1
     3     2    15   am
     4     3     4    1
     5     3    31    1
     6     3    32    1
     7     4     5    2
     8     5     6    1
     9     6     7   am
    10     6    33    1
    11     7     8    2
    12     7     9    1
    13     9    10   ar
    14    10    11   ar
    15    10    34    1
    16    11    12   ar
    17    11    35    1
    18    12    13   ar
    19    12    36    1
    20    13    14   ar
    21    13    37    1
    22    14     4    1
    23    14     9   ar
    24    15    16    1
    25    16    17    1
    26    16    38    1
    27    16    39    1
    28    17    18    1
    29    17    40    1
    30    17    41    1
    31    18    19    1
    32    18    29    1
    33    19    20   ar
    34    20    21   ar
    35    20    42    1
    36    21    22   ar
    37    21    43    1
    38    22    23   ar
    39    22    44    1
    40    23    24    1
    41    23    28   ar
    42    24    25    1
    43    24    26    1
    44    24    27    1
    45    28    19   ar
    46    28    45    1
    47    29    30    1
    48    29    46    1
    49    29    47    1
    50    30    15    1
    51    30    48    1
    52    30    49    1
@<TRIPOS>MOLECULE
*****
 49 52 0 0 0
SMALL
GASTEIGER

@<TRIPOS>ATOM
      1 O          -2.2542   -0.2420   -1.0083 O.2     1  UNL11      -0.2752
      2 C          -1.4459   -1.2094   -1.1218 C.2     1  UNL11       0.2217
      3 C          -1.8500   -2.3250   -2.0507 C.3     1  UNL11       0.0727
      4 C          -3.3188   -2.4530   -2.1076 C.2     1  UNL11       0.1237
      5 N          -4.1363   -1.6575   -1.4066 N.2     1  UNL11      -0.0071
      6 N          -5.4721   -1.7895   -1.4887 N.am    1  UNL11      -0.0356
      7 C          -6.0434   -2.7231   -2.2759 C.2     1  UNL11       0.4383
      8 O          -7.2888   -2.8672   -2.3717 O.2     1  UNL11      -0.2116
      9 C          -5.2527   -3.5594   -3.0110 C.ar    1  UNL11       0.1004
     10 C          -5.8207   -4.5132   -3.8168 C.ar    1  UNL11      -0.0441
     11 C          -5.0342   -5.3751   -4.5733 C.ar    1  UNL11      -0.0608
     12 C          -3.6796   -5.2439   -4.4901 C.ar    1  UNL11      -0.0611
     13 C          -3.1212   -4.2791   -3.6748 C.ar    1  UNL11      -0.0518
     14 C          -3.8790   -3.4159   -2.9184 C.ar    1  UNL11       0.0194
     15 N          -0.2484   -1.2257   -0.4167 N.am    1  UNL11      -0.2982
     16 C           0.1393   -0.1605    0.4714 C.3     1  UNL11       0.0304
     17 C           1.3950    0.5110   -0.0259 C.3     1  UNL11       0.0280
     18 N           2.3868   -0.4905   -0.3058 N.pl3   1  UNL11      -0.3269
     19 C           3.7347   -0.1830    0.0553 C.ar    1  UNL11       0.0303
     20 C           4.0644    0.9993    0.6356 C.ar    1  UNL11      -0.0406
     21 C           5.3851    1.3223    0.9618 C.ar    1  UNL11      -0.0595
     22 C           6.3802    0.4133    0.6850 C.ar    1  UNL11      -0.0500
     23 C           6.0622   -0.7881    0.0964 C.ar    1  UNL11       0.0566
     24 C           7.1518   -1.7487   -0.2106 C.3     1  UNL11       0.4175
     25 F           8.3923   -1.2570    0.1637 F       1  UNL11      -0.1659
     26 F           7.1623   -2.0342   -1.5594 F       1  UNL11      -0.1659
     27 F           6.9172   -2.9392    0.4770 F       1  UNL11      -0.1659
     28 C           4.7331   -1.0913   -0.2215 C.ar    1  UNL11      -0.0290
     29 C           2.0744   -1.7351   -0.9126 C.3     1  UNL11       0.0280
     30 C           0.7061   -2.2945   -0.5668 C.3     1  UNL11       0.0304
     31 H          -1.3453   -2.1705   -2.9971 H       1  UNL11       0.0425
     32 H          -1.4150   -3.2468   -1.5320 H       1  UNL11       0.0425
     33 H          -6.1161   -1.1703   -0.9443 H       1  UNL11       0.4829
     34 H          -6.8926   -4.6543   -3.9121 H       1  UNL11       0.0627
     35 H          -5.4977   -6.1199   -5.2022 H       1  UNL11       0.0618
     36 H          -3.0284   -5.9096   -5.0787 H       1  UNL11       0.0618
     37 H          -2.0442   -4.2237   -3.6495 H       1  UNL11       0.0624
     38 H           0.4480   -0.6931    1.4241 H       1  UNL11       0.0480
     39 H          -0.6512    0.5195    0.7841 H       1  UNL11       0.0480
     40 H           1.2195    1.0671   -0.9763 H       1  UNL11       0.0479
     41 H           1.7076    1.2247    0.7648 H       1  UNL11       0.0479
     42 H           3.3203    1.7226    0.8636 H       1  UNL11       0.0636
     43 H           5.6436    2.2568    1.4277 H       1  UNL11       0.0618
     44 H           7.4268    0.6219    0.9251 H       1  UNL11       0.0623
     45 H           4.5042   -2.0461   -0.6908 H       1  UNL11       0.0641
     46 H           2.0652   -1.5733   -2.0190 H       1  UNL11       0.0479
     47 H           2.8797   -2.5032   -0.7434 H       1  UNL11       0.0479
     48 H           0.4448   -3.0539   -1.3056 H       1  UNL11       0.0480
     49 H           0.8133   -2.7794    0.4248 H       1  UNL11       0.0480
@<TRIPOS>BOND
     1     1     2    2
     2     2     3    1
     3     2    15   am
     4     3     4    1
     5     3    31    1
     6     3    32    1
     7     4     5    2
     8     5     6    1
     9     6     7   am
    10     6    33    1
    11     7     8    2
    12     7     9    1
    13     9    10   ar
    14    10    11   ar
    15    10    34    1
    16    11    12   ar
    17    11    35    1
    18    12    13   ar
    19    12    36    1
    20    13    14   ar
    21    13    37    1
    22    14     4    1
    23    14     9   ar
    24    15    16    1
    25    16    17    1
    26    16    38    1
    27    16    39    1
    28    17    18    1
    29    17    40    1
    30    17    41    1
    31    18    19    1
    32    18    29    1
    33    19    20   ar
    34    20    21   ar
    35    20    42    1
    36    21    22   ar
    37    21    43    1
    38    22    23   ar
    39    22    44    1
    40    23    24    1
    41    23    28   ar
    42    24    25    1
    43    24    26    1
    44    24    27    1
    45    28    19   ar
    46    28    45    1
    47    29    30    1
    48    29    46    1
    49    29    47    1
    50    30    15    1
    51    30    48    1
    52    30    49    1
@<TRIPOS>MOLECULE
*****
 49 52 0 0 0
SMALL
GASTEIGER

@<TRIPOS>ATOM
      1 O          -2.2542   -0.2420   -1.0083 O.2     1  UNL11      -0.2752
      2 C          -1.4459   -1.2094   -1.1218 C.2     1  UNL11       0.2217
      3 C          -1.8500   -2.3250   -2.0507 C.3     1  UNL11       0.0727
      4 C          -3.1631   -2.0467   -2.6633 C.2     1  UNL11       0.1237
      5 N          -4.3137   -2.4459   -2.1072 N.2     1  UNL11      -0.0071
      6 N          -5.4966   -2.1662   -2.6824 N.am    1  UNL11      -0.0356
      7 C          -5.5754   -1.4755   -3.8376 C.2     1  UNL11       0.4383
      8 O          -6.6678   -1.1998   -4.3959 O.2     1  UNL11      -0.2116
      9 C          -4.4301   -1.0461   -4.4448 C.ar    1  UNL11       0.1004
     10 C          -4.4958   -0.3415   -5.6200 C.ar    1  UNL11      -0.0441
     11 C          -3.3420    0.1047   -6.2551 C.ar    1  UNL11      -0.0608
     12 C          -2.1415   -0.1793   -5.6742 C.ar    1  UNL11      -0.0611
     13 C          -2.0903   -0.8895   -4.4908 C.ar    1  UNL11      -0.0518
     14 C          -3.2178   -1.3402   -3.8450 C.ar    1  UNL11       0.0194
     15 N          -0.2484   -1.2257   -0.4167 N.am    1  UNL11      -0.2982
     16 C           0.1393   -0.1605    0.4714 C.3     1  UNL11       0.0304
     17 C           1.3950    0.5110   -0.0259 C.3     1  UNL11       0.0280
     18 N           2.3868   -0.4905   -0.3058 N.pl3   1  UNL11      -0.3269
     19 C           3.7347   -0.1830    0.0553 C.ar    1  UNL11       0.0303
     20 C           4.0232    0.6350    1.0998 C.ar    1  UNL11      -0.0406
     21 C           5.3379    0.9680    1.4397 C.ar    1  UNL11      -0.0595
     22 C           6.3700    0.4505    0.6913 C.ar    1  UNL11      -0.0500
     23 C           6.0938   -0.3786   -0.3704 C.ar    1  UNL11       0.0566
     24 C           7.2200   -0.9131   -1.1769 C.3     1  UNL11       0.4175
     25 F           8.4458   -0.4668   -0.7089 F       1  UNL11      -0.1659
     26 F           7.0728   -0.5416   -2.4964 F       1  UNL11      -0.1659
     27 F           7.2007   -2.3064   -1.1198 F       1  UNL11      -0.1659
     28 C           4.7700   -0.6994   -0.6930 C.ar    1  UNL11      -0.0290
     29 C           2.0744   -1.7351   -0.9126 C.3     1  UNL11       0.0280
     30 C           0.7061   -2.2945   -0.5668 C.3     1  UNL11       0.0304
     31 H          -1.0294   -2.5025   -2.7358 H       1  UNL11       0.0425
     32 H          -1.9516   -3.2138   -1.3382 H       1  UNL11       0.0425
     33 H          -6.3991   -2.4745   -2.2523 H       1  UNL11       0.4829
     34 H          -5.4281   -0.0949   -6.1180 H       1  UNL11       0.0627
     35 H          -3.4119    0.6579   -7.1793 H       1  UNL11       0.0618
     36 H          -1.2089    0.1622   -6.1507 H       1  UNL11       0.0618
     37 H          -1.1122   -1.0846   -4.0795 H       1  UNL11       0.0624
     38 H           0.4480   -0.6931    1.4241 H       1  UNL11       0.0480
     39 H          -0.6512    0.5195    0.7841 H       1  UNL11       0.0480
     40 H           1.2195    1.0671   -0.9763 H       1  UNL11       0.0479
     41 H           1.7076    1.2247    0.7648 H       1  UNL11       0.0479
     42 H           3.2499    1.0504    1.6984 H       1  UNL11       0.0636
     43 H           5.5649    1.6110    2.2716 H       1  UNL11       0.0618
     44 H           7.4141    0.6813    0.9220 H       1  UNL11       0.0623
     45 H           4.5738   -1.3540   -1.5398 H       1  UNL11       0.0641
     46 H           2.0652   -1.5733   -2.0190 H       1  UNL11       0.0479
     47 H           2.8797   -2.5032   -0.7434 H       1  UNL11       0.0479
     48 H           0.4448   -3.0539   -1.3056 H       1  UNL11       0.0480
     49 H           0.8133   -2.7794    0.4248 H       1  UNL11       0.0480
@<TRIPOS>BOND
     1     1     2    2
     2     2     3    1
     3     2    15   am
     4     3     4    1
     5     3    31    1
     6     3    32    1
     7     4     5    2
     8     5     6    1
     9     6     7   am
    10     6    33    1
    11     7     8    2
    12     7     9    1
    13     9    10   ar
    14    10    11   ar
    15    10    34    1
    16    11    12   ar
    17    11    35    1
    18    12    13   ar
    19    12    36    1
    20    13    14   ar
    21    13    37    1
    22    14     4    1
    23    14     9   ar
    24    15    16    1
    25    16    17    1
    26    16    38    1
    27    16    39    1
    28    17    18    1
    29    17    40    1
    30    17    41    1
    31    18    19    1
    32    18    29    1
    33    19    20   ar
    34    20    21   ar
    35    20    42    1
    36    21    22   ar
    37    21    43    1
    38    22    23   ar
    39    22    44    1
    40    23    24    1
    41    23    28   ar
    42    24    25    1
    43    24    26    1
    44    24    27    1
    45    28    19   ar
    46    28    45    1
    47    29    30    1
    48    29    46    1
    49    29    47    1
    50    30    15    1
    51    30    48    1
    52    30    49    1
@<TRIPOS>MOLECULE
*****
 49 52 0 0 0
SMALL
GASTEIGER

@<TRIPOS>ATOM
      1 O          -2.2542   -0.2420   -1.0083 O.2     1  UNL11      -0.2752
      2 C          -1.4459   -1.2094   -1.1218 C.2     1  UNL11       0.2217
      3 C          -1.8500   -2.3250   -2.0507 C.3     1  UNL11       0.0727
      4 C          -3.1631   -2.0467   -2.6633 C.2     1  UNL11       0.1237
      5 N          -3.2894   -1.3887   -3.8225 N.2     1  UNL11      -0.0071
      6 N          -4.4993   -1.1609   -4.3633 N.am    1  UNL11      -0.0356
      7 C          -5.6318   -1.5828   -3.7655 C.2     1  UNL11       0.4383
      8 O          -6.7751   -1.3841   -4.2498 O.2     1  UNL11      -0.2116
      9 C          -5.5566   -2.2585   -2.5812 C.ar    1  UNL11       0.1004
     10 C          -6.7008   -2.6942   -1.9627 C.ar    1  UNL11      -0.0441
     11 C          -6.6468   -3.3837   -0.7562 C.ar    1  UNL11      -0.0608
     12 C          -5.4209   -3.6141   -0.2055 C.ar    1  UNL11      -0.0611
     13 C          -4.2771   -3.1698   -0.8393 C.ar    1  UNL11      -0.0518
     14 C          -4.3063   -2.4866   -2.0326 C.ar    1  UNL11       0.0194
     15 N          -0.2484   -1.2257   -0.4167 N.am    1  UNL11      -0.2982
     16 C           0.1393   -0.1605    0.4714 C.3     1  UNL11       0.0304
     17 C           1.3950    0.5110   -0.0259 C.3     1  UNL11       0.0280
     18 N           2.3868   -0.4905   -0.3058 N.pl3   1  UNL11      -0.3269
     19 C           3.7347   -0.1830    0.0553 C.ar    1  UNL11       0.0303
     20 C           4.0232    0.6350    1.0998 C.ar    1  UNL11      -0.0406
     21 C           5.3379    0.9680    1.4397 C.ar    1  UNL11      -0.0595
     22 C           6.3700    0.4505    0.6913 C.ar    1  UNL11      -0.0500
     23 C           6.0938   -0.3786   -0.3704 C.ar    1  UNL11       0.0566
     24 C           7.2200   -0.9131   -1.1769 C.3     1  UNL11       0.4175
     25 F           8.4458   -0.4668   -0.7089 F       1  UNL11      -0.1659
     26 F           7.0728   -0.5416   -2.4964 F       1  UNL11      -0.1659
     27 F           7.2007   -2.3064   -1.1198 F       1  UNL11      -0.1659
     28 C           4.7700   -0.6994   -0.6930 C.ar    1  UNL11      -0.0290
     29 C           2.0744   -1.7351   -0.9126 C.3     1  UNL11       0.0280
     30 C           0.7061   -2.2945   -0.5668 C.3     1  UNL11       0.0304
     31 H          -1.0294   -2.5025   -2.7358 H       1  UNL11       0.0425
     32 H          -1.9516   -3.2138   -1.3382 H       1  UNL11       0.0425
     33 H          -4.6045   -0.6484   -5.2692 H       1  UNL11       0.4829
     34 H          -7.6962   -2.5315   -2.3635 H       1  UNL11       0.0627
     35 H          -7.5570   -3.7195   -0.2831 H       1  UNL11       0.0618
     36 H          -5.3436   -4.1598    0.7484 H       1  UNL11       0.0618
     37 H          -3.3365   -3.3809   -0.3553 H       1  UNL11       0.0624
     38 H           0.4480   -0.6931    1.4241 H       1  UNL11       0.0480
     39 H          -0.6512    0.5195    0.7841 H       1  UNL11       0.0480
     40 H           1.2195    1.0671   -0.9763 H       1  UNL11       0.0479
     41 H           1.7076    1.2247    0.7648 H       1  UNL11       0.0479
     42 H           3.2499    1.0504    1.6984 H       1  UNL11       0.0636
     43 H           5.5649    1.6110    2.2716 H       1  UNL11       0.0618
     44 H           7.4141    0.6813    0.9220 H       1  UNL11       0.0623
     45 H           4.5738   -1.3540   -1.5398 H       1  UNL11       0.0641
     46 H           2.0652   -1.5733   -2.0190 H       1  UNL11       0.0479
     47 H           2.8797   -2.5032   -0.7434 H       1  UNL11       0.0479
     48 H           0.4448   -3.0539   -1.3056 H       1  UNL11       0.0480
     49 H           0.8133   -2.7794    0.4248 H       1  UNL11       0.0480
@<TRIPOS>BOND
     1     1     2    2
     2     2     3    1
     3     2    15   am
     4     3     4    1
     5     3    31    1
     6     3    32    1
     7     4     5    2
     8     5     6    1
     9     6     7   am
    10     6    33    1
    11     7     8    2
    12     7     9    1
    13     9    10   ar
    14    10    11   ar
    15    10    34    1
    16    11    12   ar
    17    11    35    1
    18    12    13   ar
    19    12    36    1
    20    13    14   ar
    21    13    37    1
    22    14     4    1
    23    14     9   ar
    24    15    16    1
    25    16    17    1
    26    16    38    1
    27    16    39    1
    28    17    18    1
    29    17    40    1
    30    17    41    1
    31    18    19    1
    32    18    29    1
    33    19    20   ar
    34    20    21   ar
    35    20    42    1
    36    21    22   ar
    37    21    43    1
    38    22    23   ar
    39    22    44    1
    40    23    24    1
    41    23    28   ar
    42    24    25    1
    43    24    26    1
    44    24    27    1
    45    28    19   ar
    46    28    45    1
    47    29    30    1
    48    29    46    1
    49    29    47    1
    50    30    15    1
    51    30    48    1
    52    30    49    1
@<TRIPOS>MOLECULE
*****
 49 52 0 0 0
SMALL
GASTEIGER

@<TRIPOS>ATOM
      1 O          -2.2542   -0.2420   -1.0083 O.2     1  UNL11      -0.2752
      2 C          -1.4459   -1.2094   -1.1218 C.2     1  UNL11       0.2217
      3 C          -1.8500   -2.3250   -2.0507 C.3     1  UNL11       0.0727
      4 C          -0.8257   -3.3866   -2.0710 C.2     1  UNL11       0.1237
      5 N          -0.4799   -4.0715   -0.9737 N.2     1  UNL11      -0.0071
      6 N           0.4484   -5.0430   -1.0255 N.am    1  UNL11      -0.0356
      7 C           1.0680   -5.3684   -2.1779 C.2     1  UNL11       0.4383
      8 O           1.9383   -6.2726   -2.2543 O.2     1  UNL11      -0.2116
      9 C           0.7507   -4.6990   -3.3252 C.ar    1  UNL11       0.1004
     10 C           1.3727   -5.0204   -4.5048 C.ar    1  UNL11      -0.0441
     11 C           1.0649   -4.3513   -5.6843 C.ar    1  UNL11      -0.0608
     12 C           0.1251   -3.3647   -5.6335 C.ar    1  UNL11      -0.0611
     13 C          -0.4933   -3.0517   -4.4389 C.ar    1  UNL11      -0.0518
     14 C          -0.2053   -3.7000   -3.2607 C.ar    1  UNL11       0.0194
     15 N          -0.2484   -1.2257   -0.4167 N.am    1  UNL11      -0.2982
     16 C           0.1393   -0.1605    0.4714 C.3     1  UNL11       0.0304
     17 C           1.3950    0.5110   -0.0259 C.3     1  UNL11       0.0280
     18 N           2.3868   -0.4905   -0.3058 N.pl3   1  UNL11      -0.3269
     19 C           3.7347   -0.1830    0.0553 C.ar    1  UNL11       0.0303
     20 C           4.7895   -0.6832   -0.6379 C.ar    1  UNL11      -0.0406
     21 C           6.1118   -0.4147   -0.2717 C.ar    1  UNL11      -0.0595
     22 C           6.3500    0.3804    0.8255 C.ar    1  UNL11      -0.0500
     23 C           5.2922    0.8936    1.5386 C.ar    1  UNL11       0.0566
     24 C           5.5692    1.7352    2.7299 C.3     1  UNL11       0.4175
     25 F           6.9294    1.8804    2.9527 F       1  UNL11      -0.1659
     26 F           4.9808    1.1800    3.8463 F       1  UNL11      -0.1659
     27 F           5.0112    2.9984    2.5356 F       1  UNL11      -0.1659
     28 C           3.9759    0.6125    1.1541 C.ar    1  UNL11      -0.0290
     29 C           2.0744   -1.7351   -0.9126 C.3     1  UNL11       0.0280
     30 C           0.7061   -2.2945   -0.5668 C.3     1  UNL11       0.0304
     31 H          -2.8544   -2.6330   -1.7852 H       1  UNL11       0.0425
     32 H          -1.8671   -1.8036   -3.0685 H       1  UNL11       0.0425
     33 H           0.7221   -5.5824   -0.1719 H       1  UNL11       0.4829
     34 H           2.1269   -5.7961   -4.5911 H       1  UNL11       0.0627
     35 H           1.5639   -4.6170   -6.6038 H       1  UNL11       0.0618
     36 H          -0.1434   -2.8171   -6.5509 H       1  UNL11       0.0618
     37 H          -1.2276   -2.2618   -4.4606 H       1  UNL11       0.0624
     38 H           0.4480   -0.6931    1.4241 H       1  UNL11       0.0480
     39 H          -0.6512    0.5195    0.7841 H       1  UNL11       0.0480
     40 H           1.2195    1.0671   -0.9763 H       1  UNL11       0.0479
     41 H           1.7076    1.2247    0.7648 H       1  UNL11       0.0479
     42 H           4.6403   -1.2996   -1.4904 H       1  UNL11       0.0636
     43 H           6.9463   -0.8066   -0.8262 H       1  UNL11       0.0618
     44 H           7.3679    0.6194    1.1472 H       1  UNL11       0.0623
     45 H           3.1536    1.0255    1.7351 H       1  UNL11       0.0641
     46 H           2.0652   -1.5733   -2.0190 H       1  UNL11       0.0479
     47 H           2.8797   -2.5032   -0.7434 H       1  UNL11       0.0479
     48 H           0.4448   -3.0539   -1.3056 H       1  UNL11       0.0480
     49 H           0.8133   -2.7794    0.4248 H       1  UNL11       0.0480
@<TRIPOS>BOND
     1     1     2    2
     2     2     3    1
     3     2    15   am
     4     3     4    1
     5     3    31    1
     6     3    32    1
     7     4     5    2
     8     5     6    1
     9     6     7   am
    10     6    33    1
    11     7     8    2
    12     7     9    1
    13     9    10   ar
    14    10    11   ar
    15    10    34    1
    16    11    12   ar
    17    11    35    1
    18    12    13   ar
    19    12    36    1
    20    13    14   ar
    21    13    37    1
    22    14     4    1
    23    14     9   ar
    24    15    16    1
    25    16    17    1
    26    16    38    1
    27    16    39    1
    28    17    18    1
    29    17    40    1
    30    17    41    1
    31    18    19    1
    32    18    29    1
    33    19    20   ar
    34    20    21   ar
    35    20    42    1
    36    21    22   ar
    37    21    43    1
    38    22    23   ar
    39    22    44    1
    40    23    24    1
    41    23    28   ar
    42    24    25    1
    43    24    26    1
    44    24    27    1
    45    28    19   ar
    46    28    45    1
    47    29    30    1
    48    29    46    1
    49    29    47    1
    50    30    15    1
    51    30    48    1
    52    30    49    1
@<TRIPOS>MOLECULE
*****
 49 52 0 0 0
SMALL
GASTEIGER

@<TRIPOS>ATOM
      1 O          -2.2542   -0.2420   -1.0083 O.2     1  UNL11      -0.2752
      2 C          -1.4459   -1.2094   -1.1218 C.2     1  UNL11       0.2217
      3 C          -1.8500   -2.3250   -2.0507 C.3     1  UNL11       0.0727
      4 C          -1.2945   -3.6134   -1.5947 C.2     1  UNL11       0.1237
      5 N           0.0213   -3.8196   -1.4577 N.2     1  UNL11      -0.0071
      6 N           0.4979   -5.0011   -1.0273 N.am    1  UNL11      -0.0356
      7 C          -0.3236   -6.0241   -0.7167 C.2     1  UNL11       0.4383
      8 O           0.0953   -7.1382   -0.3115 O.2     1  UNL11      -0.2116
      9 C          -1.6742   -5.8643   -0.8397 C.ar    1  UNL11       0.1004
     10 C          -2.5216   -6.8965   -0.5262 C.ar    1  UNL11      -0.0441
     11 C          -3.8999   -6.7552   -0.6447 C.ar    1  UNL11      -0.0608
     12 C          -4.3849   -5.5584   -1.0824 C.ar    1  UNL11      -0.0611
     13 C          -3.5202   -4.5277   -1.3944 C.ar    1  UNL11      -0.0518
     14 C          -2.1543   -4.6445   -1.2846 C.ar    1  UNL11       0.0194
     15 N          -0.2484   -1.2257   -0.4167 N.am    1  UNL11      -0.2982
     16 C           0.1393   -0.1605    0.4714 C.3     1  UNL11       0.0304
     17 C           1.3950    0.5110   -0.0259 C.3     1  UNL11       0.0280
     18 N           2.3868   -0.4905   -0.3058 N.pl3   1  UNL11      -0.3269
     19 C           3.7347   -0.1830    0.0553 C.ar    1  UNL11       0.0303
     20 C           4.1952    1.0941    0.0666 C.ar    1  UNL11      -0.0406
     21 C           5.5213    1.4014    0.3863 C.ar    1  UNL11      -0.0595
     22 C           6.3850    0.3768    0.6980 C.ar    1  UNL11      -0.0500
     23 C           5.9338   -0.9221    0.6898 C.ar    1  UNL11       0.0566
     24 C           6.8852   -2.0156    1.0118 C.3     1  UNL11       0.4175
     25 F           8.1542   -1.5300    1.2851 F       1  UNL11      -0.1659
     26 F           6.9537   -2.9054   -0.0391 F       1  UNL11      -0.1659
     27 F           6.4218   -2.7086    2.1298 F       1  UNL11      -0.1659
     28 C           4.6019   -1.2073    0.3672 C.ar    1  UNL11      -0.0290
     29 C           2.0744   -1.7351   -0.9126 C.3     1  UNL11       0.0280
     30 C           0.7061   -2.2945   -0.5668 C.3     1  UNL11       0.0304
     31 H          -2.9258   -2.2835   -2.1738 H       1  UNL11       0.0425
     32 H          -1.3418   -2.0255   -3.0306 H       1  UNL11       0.0425
     33 H           1.5248   -5.1680   -0.9173 H       1  UNL11       0.4829
     34 H          -2.1798   -7.8654   -0.1764 H       1  UNL11       0.0627
     35 H          -4.5522   -7.5777   -0.3936 H       1  UNL11       0.0618
     36 H          -5.4721   -5.4132   -1.1848 H       1  UNL11       0.0618
     37 H          -3.9623   -3.6050   -1.7363 H       1  UNL11       0.0624
     38 H           0.4480   -0.6931    1.4241 H       1  UNL11       0.0480
     39 H          -0.6512    0.5195    0.7841 H       1  UNL11       0.0480
     40 H           1.2195    1.0671   -0.9763 H       1  UNL11       0.0479
     41 H           1.7076    1.2247    0.7648 H       1  UNL11       0.0479
     42 H           3.5543    1.9083   -0.1681 H       1  UNL11       0.0636
     43 H           5.8827    2.4144    0.4012 H       1  UNL11       0.0618
     44 H           7.4301    0.5700    0.9570 H       1  UNL11       0.0623
     45 H           4.2669   -2.2426    0.3626 H       1  UNL11       0.0641
     46 H           2.0652   -1.5733   -2.0190 H       1  UNL11       0.0479
     47 H           2.8797   -2.5032   -0.7434 H       1  UNL11       0.0479
     48 H           0.4448   -3.0539   -1.3056 H       1  UNL11       0.0480
     49 H           0.8133   -2.7794    0.4248 H       1  UNL11       0.0480
@<TRIPOS>BOND
     1     1     2    2
     2     2     3    1
     3     2    15   am
     4     3     4    1
     5     3    31    1
     6     3    32    1
     7     4     5    2
     8     5     6    1
     9     6     7   am
    10     6    33    1
    11     7     8    2
    12     7     9    1
    13     9    10   ar
    14    10    11   ar
    15    10    34    1
    16    11    12   ar
    17    11    35    1
    18    12    13   ar
    19    12    36    1
    20    13    14   ar
    21    13    37    1
    22    14     4    1
    23    14     9   ar
    24    15    16    1
    25    16    17    1
    26    16    38    1
    27    16    39    1
    28    17    18    1
    29    17    40    1
    30    17    41    1
    31    18    19    1
    32    18    29    1
    33    19    20   ar
    34    20    21   ar
    35    20    42    1
    36    21    22   ar
    37    21    43    1
    38    22    23   ar
    39    22    44    1
    40    23    24    1
    41    23    28   ar
    42    24    25    1
    43    24    26    1
    44    24    27    1
    45    28    19   ar
    46    28    45    1
    47    29    30    1
    48    29    46    1
    49    29    47    1
    50    30    15    1
    51    30    48    1
    52    30    49    1
@<TRIPOS>MOLECULE
*****
 49 52 0 0 0
SMALL
GASTEIGER

@<TRIPOS>ATOM
      1 O          -1.7643   -2.1677   -1.8850 O.2     1  UNL11      -0.2752
      2 C          -1.4459   -1.2094   -1.1218 C.2     1  UNL11       0.2217
      3 C          -2.4244   -0.0677   -1.0231 C.3     1  UNL11       0.0727
      4 C          -2.8894    0.1050    0.3664 C.2     1  UNL11       0.1237
      5 N          -2.4659   -0.6768    1.3675 N.2     1  UNL11      -0.0071
      6 N          -2.8977   -0.4873    2.6268 N.am    1  UNL11      -0.0356
      7 C          -3.7709    0.4927    2.9349 C.2     1  UNL11       0.4383
      8 O          -4.1898    0.6922    4.1036 O.2     1  UNL11      -0.2116
      9 C          -4.2331    1.3171    1.9493 C.ar    1  UNL11       0.1004
     10 C          -5.1211    2.3188    2.2489 C.ar    1  UNL11      -0.0441
     11 C          -5.6046    3.1691    1.2605 C.ar    1  UNL11      -0.0608
     12 C          -5.1692    2.9774   -0.0173 C.ar    1  UNL11      -0.0611
     13 C          -4.2748    1.9650   -0.3046 C.ar    1  UNL11      -0.0518
     14 C          -3.7832    1.1127    0.6562 C.ar    1  UNL11       0.0194
     15 N          -0.2484   -1.2257   -0.4167 N.am    1  UNL11      -0.2982
     16 C           0.1393   -0.1605    0.4714 C.3     1  UNL11       0.0304
     17 C           1.3950    0.5110   -0.0259 C.3     1  UNL11       0.0280
     18 N           2.3868   -0.4905   -0.3058 N.pl3   1  UNL11      -0.3269
     19 C           3.7347   -0.1830    0.0553 C.ar    1  UNL11       0.0303
     20 C           4.0644    0.9993    0.6356 C.ar    1  UNL11      -0.0406
     21 C           5.3851    1.3223    0.9618 C.ar    1  UNL11      -0.0595
     22 C           6.3802    0.4133    0.6850 C.ar    1  UNL11      -0.0500
     23 C           6.0622   -0.7881    0.0964 C.ar    1  UNL11       0.0566
     24 C           7.1518   -1.7487   -0.2106 C.3     1  UNL11       0.4175
     25 F           8.3923   -1.2570    0.1637 F       1  UNL11      -0.1659
     26 F           7.1623   -2.0342   -1.5594 F       1  UNL11      -0.1659
     27 F           6.9172   -2.9392    0.4770 F       1  UNL11      -0.1659
     28 C           4.7331   -1.0913   -0.2215 C.ar    1  UNL11      -0.0290
     29 C           2.0744   -1.7351   -0.9126 C.3     1  UNL11       0.0280
     30 C           0.7061   -2.2945   -0.5668 C.3     1  UNL11       0.0304
     31 H          -1.9725    0.8003   -1.4887 H       1  UNL11       0.0425
     32 H          -3.2965   -0.4348   -1.6655 H       1  UNL11       0.0425
     33 H          -2.5696   -1.0941    3.4134 H       1  UNL11       0.4829
     34 H          -5.4954    2.5062    3.2503 H       1  UNL11       0.0627
     35 H          -6.3029    3.9523    1.5139 H       1  UNL11       0.0618
     36 H          -5.5312    3.6357   -0.8230 H       1  UNL11       0.0618
     37 H          -3.9673    1.8616   -1.3334 H       1  UNL11       0.0624
     38 H           0.4480   -0.6931    1.4241 H       1  UNL11       0.0480
     39 H          -0.6512    0.5195    0.7841 H       1  UNL11       0.0480
     40 H           1.2195    1.0671   -0.9763 H       1  UNL11       0.0479
     41 H           1.7076    1.2247    0.7648 H       1  UNL11       0.0479
     42 H           3.3203    1.7226    0.8636 H       1  UNL11       0.0636
     43 H           5.6436    2.2568    1.4277 H       1  UNL11       0.0618
     44 H           7.4268    0.6219    0.9251 H       1  UNL11       0.0623
     45 H           4.5042   -2.0461   -0.6908 H       1  UNL11       0.0641
     46 H           2.0652   -1.5733   -2.0190 H       1  UNL11       0.0479
     47 H           2.8797   -2.5032   -0.7434 H       1  UNL11       0.0479
     48 H           0.4448   -3.0539   -1.3056 H       1  UNL11       0.0480
     49 H           0.8133   -2.7794    0.4248 H       1  UNL11       0.0480
@<TRIPOS>BOND
     1     1     2    2
     2     2     3    1
     3     2    15   am
     4     3     4    1
     5     3    31    1
     6     3    32    1
     7     4     5    2
     8     5     6    1
     9     6     7   am
    10     6    33    1
    11     7     8    2
    12     7     9    1
    13     9    10   ar
    14    10    11   ar
    15    10    34    1
    16    11    12   ar
    17    11    35    1
    18    12    13   ar
    19    12    36    1
    20    13    14   ar
    21    13    37    1
    22    14     4    1
    23    14     9   ar
    24    15    16    1
    25    16    17    1
    26    16    38    1
    27    16    39    1
    28    17    18    1
    29    17    40    1
    30    17    41    1
    31    18    19    1
    32    18    29    1
    33    19    20   ar
    34    20    21   ar
    35    20    42    1
    36    21    22   ar
    37    21    43    1
    38    22    23   ar
    39    22    44    1
    40    23    24    1
    41    23    28   ar
    42    24    25    1
    43    24    26    1
    44    24    27    1
    45    28    19   ar
    46    28    45    1
    47    29    30    1
    48    29    46    1
    49    29    47    1
    50    30    15    1
    51    30    48    1
    52    30    49    1
@<TRIPOS>MOLECULE
*****
 49 52 0 0 0
SMALL
GASTEIGER

@<TRIPOS>ATOM
      1 O          -1.7643   -2.1677   -1.8850 O.2     1  UNL11      -0.2752
      2 C          -1.4459   -1.2094   -1.1218 C.2     1  UNL11       0.2217
      3 C          -2.4244   -0.0677   -1.0231 C.3     1  UNL11       0.0727
      4 C          -3.6040   -0.3137   -1.8744 C.2     1  UNL11       0.1237
      5 N          -3.9525    0.5074   -2.8729 N.2     1  UNL11      -0.0071
      6 N          -5.0261    0.2502   -3.6407 N.am    1  UNL11      -0.0356
      7 C          -5.7942   -0.8396   -3.4400 C.2     1  UNL11       0.4383
      8 O          -6.8023   -1.1041   -4.1434 O.2     1  UNL11      -0.2116
      9 C          -5.4808   -1.7083   -2.4341 C.ar    1  UNL11       0.1004
     10 C          -6.2532   -2.8214   -2.2194 C.ar    1  UNL11      -0.0441
     11 C          -5.9521   -3.7186   -1.2005 C.ar    1  UNL11      -0.0608
     12 C          -4.8648   -3.4586   -0.4198 C.ar    1  UNL11      -0.0611
     13 C          -4.0960   -2.3340   -0.6473 C.ar    1  UNL11      -0.0518
     14 C          -4.3744   -1.4336   -1.6489 C.ar    1  UNL11       0.0194
     15 N          -0.2484   -1.2257   -0.4167 N.am    1  UNL11      -0.2982
     16 C           0.1393   -0.1605    0.4714 C.3     1  UNL11       0.0304
     17 C           1.3950    0.5110   -0.0259 C.3     1  UNL11       0.0280
     18 N           2.3868   -0.4905   -0.3058 N.pl3   1  UNL11      -0.3269
     19 C           3.7347   -0.1830    0.0553 C.ar    1  UNL11       0.0303
     20 C           4.0232    0.6350    1.0998 C.ar    1  UNL11      -0.0406
     21 C           5.3379    0.9680    1.4397 C.ar    1  UNL11      -0.0595
     22 C           6.3700    0.4505    0.6913 C.ar    1  UNL11      -0.0500
     23 C           6.0938   -0.3786   -0.3704 C.ar    1  UNL11       0.0566
     24 C           7.2200   -0.9131   -1.1769 C.3     1  UNL11       0.4175
     25 F           8.4458   -0.4668   -0.7089 F       1  UNL11      -0.1659
     26 F           7.0728   -0.5416   -2.4964 F       1  UNL11      -0.1659
     27 F           7.2007   -2.3064   -1.1198 F       1  UNL11      -0.1659
     28 C           4.7700   -0.6994   -0.6930 C.ar    1  UNL11      -0.0290
     29 C           2.0744   -1.7351   -0.9126 C.3     1  UNL11       0.0280
     30 C           0.7061   -2.2945   -0.5668 C.3     1  UNL11       0.0304
     31 H          -2.6206    0.1138    0.0270 H       1  UNL11       0.0425
     32 H          -1.8273    0.8062   -1.4565 H       1  UNL11       0.0425
     33 H          -5.3029    0.8874   -4.4229 H       1  UNL11       0.4829
     34 H          -7.1273   -3.0664   -2.8142 H       1  UNL11       0.0627
     35 H          -6.5705   -4.5896   -1.0455 H       1  UNL11       0.0618
     36 H          -4.5978   -4.1511    0.3943 H       1  UNL11       0.0618
     37 H          -3.2491   -2.1809    0.0030 H       1  UNL11       0.0624
     38 H           0.4480   -0.6931    1.4241 H       1  UNL11       0.0480
     39 H          -0.6512    0.5195    0.7841 H       1  UNL11       0.0480
     40 H           1.2195    1.0671   -0.9763 H       1  UNL11       0.0479
     41 H           1.7076    1.2247    0.7648 H       1  UNL11       0.0479
     42 H           3.2499    1.0504    1.6984 H       1  UNL11       0.0636
     43 H           5.5649    1.6110    2.2716 H       1  UNL11       0.0618
     44 H           7.4141    0.6813    0.9220 H       1  UNL11       0.0623
     45 H           4.5738   -1.3540   -1.5398 H       1  UNL11       0.0641
     46 H           2.0652   -1.5733   -2.0190 H       1  UNL11       0.0479
     47 H           2.8797   -2.5032   -0.7434 H       1  UNL11       0.0479
     48 H           0.4448   -3.0539   -1.3056 H       1  UNL11       0.0480
     49 H           0.8133   -2.7794    0.4248 H       1  UNL11       0.0480
@<TRIPOS>BOND
     1     1     2    2
     2     2     3    1
     3     2    15   am
     4     3     4    1
     5     3    31    1
     6     3    32    1
     7     4     5    2
     8     5     6    1
     9     6     7   am
    10     6    33    1
    11     7     8    2
    12     7     9    1
    13     9    10   ar
    14    10    11   ar
    15    10    34    1
    16    11    12   ar
    17    11    35    1
    18    12    13   ar
    19    12    36    1
    20    13    14   ar
    21    13    37    1
    22    14     4    1
    23    14     9   ar
    24    15    16    1
    25    16    17    1
    26    16    38    1
    27    16    39    1
    28    17    18    1
    29    17    40    1
    30    17    41    1
    31    18    19    1
    32    18    29    1
    33    19    20   ar
    34    20    21   ar
    35    20    42    1
    36    21    22   ar
    37    21    43    1
    38    22    23   ar
    39    22    44    1
    40    23    24    1
    41    23    28   ar
    42    24    25    1
    43    24    26    1
    44    24    27    1
    45    28    19   ar
    46    28    45    1
    47    29    30    1
    48    29    46    1
    49    29    47    1
    50    30    15    1
    51    30    48    1
    52    30    49    1
@<TRIPOS>MOLECULE
*****
 49 52 0 0 0
SMALL
GASTEIGER

@<TRIPOS>ATOM
      1 O          -2.2542   -0.2420   -1.0083 O.2     1  UNL11      -0.2752
      2 C          -1.4459   -1.2094   -1.1218 C.2     1  UNL11       0.2217
      3 C          -1.8500   -2.3250   -2.0507 C.3     1  UNL11       0.0727
      4 C          -0.8257   -3.3866   -2.0710 C.2     1  UNL11       0.1237
      5 N          -1.0922   -4.6482   -1.7104 N.2     1  UNL11      -0.0071
      6 N          -0.1409   -5.5977   -1.7515 N.am    1  UNL11      -0.0356
      7 C           1.1157   -5.3227   -2.1554 C.2     1  UNL11       0.4383
      8 O           2.0234   -6.1914   -2.2041 O.2     1  UNL11      -0.2116
      9 C           1.4383   -4.0508   -2.5334 C.ar    1  UNL11       0.1004
     10 C           2.7127   -3.7572   -2.9473 C.ar    1  UNL11      -0.0441
     11 C           3.0625   -2.4687   -3.3360 C.ar    1  UNL11      -0.0608
     12 C           2.0997   -1.5042   -3.2934 C.ar    1  UNL11      -0.0611
     13 C           0.8205   -1.8139   -2.8747 C.ar    1  UNL11      -0.0518
     14 C           0.4520   -3.0806   -2.4862 C.ar    1  UNL11       0.0194
     15 N          -0.2484   -1.2257   -0.4167 N.am    1  UNL11      -0.2982
     16 C           0.1393   -0.1605    0.4714 C.3     1  UNL11       0.0304
     17 C           1.3950    0.5110   -0.0259 C.3     1  UNL11       0.0280
     18 N           2.3868   -0.4905   -0.3058 N.pl3   1  UNL11      -0.3269
     19 C           3.7347   -0.1830    0.0553 C.ar    1  UNL11       0.0303
     20 C           4.0644    0.9993    0.6356 C.ar    1  UNL11      -0.0406
     21 C           5.3851    1.3223    0.9618 C.ar    1  UNL11      -0.0595
     22 C           6.3802    0.4133    0.6850 C.ar    1  UNL11      -0.0500
     23 C           6.0622   -0.7881    0.0964 C.ar    1  UNL11       0.0566
     24 C           7.1518   -1.7487   -0.2106 C.3     1  UNL11       0.4175
     25 F           8.3923   -1.2570    0.1637 F       1  UNL11      -0.1659
     26 F           7.1623   -2.0342   -1.5594 F       1  UNL11      -0.1659
     27 F           6.9172   -2.9392    0.4770 F       1  UNL11      -0.1659
     28 C           4.7331   -1.0913   -0.2215 C.ar    1  UNL11      -0.0290
     29 C           2.0744   -1.7351   -0.9126 C.3     1  UNL11       0.0280
     30 C           0.7061   -2.2945   -0.5668 C.3     1  UNL11       0.0304
     31 H          -2.8544   -2.6330   -1.7852 H       1  UNL11       0.0425
     32 H          -1.8671   -1.8036   -3.0685 H       1  UNL11       0.0425
     33 H          -0.3432   -6.5854   -1.4720 H       1  UNL11       0.4829
     34 H           3.5100   -4.4921   -2.9950 H       1  UNL11       0.0627
     35 H           4.0700   -2.2552   -3.6591 H       1  UNL11       0.0618
     36 H           2.3438   -0.4738   -3.5973 H       1  UNL11       0.0618
     37 H           0.1021   -1.0093   -2.8613 H       1  UNL11       0.0624
     38 H           0.4480   -0.6931    1.4241 H       1  UNL11       0.0480
     39 H          -0.6512    0.5195    0.7841 H       1  UNL11       0.0480
     40 H           1.2195    1.0671   -0.9763 H       1  UNL11       0.0479
     41 H           1.7076    1.2247    0.7648 H       1  UNL11       0.0479
     42 H           3.3203    1.7226    0.8636 H       1  UNL11       0.0636
     43 H           5.6436    2.2568    1.4277 H       1  UNL11       0.0618
     44 H           7.4268    0.6219    0.9251 H       1  UNL11       0.0623
     45 H           4.5042   -2.0461   -0.6908 H       1  UNL11       0.0641
     46 H           2.0652   -1.5733   -2.0190 H       1  UNL11       0.0479
     47 H           2.8797   -2.5032   -0.7434 H       1  UNL11       0.0479
     48 H           0.4448   -3.0539   -1.3056 H       1  UNL11       0.0480
     49 H           0.8133   -2.7794    0.4248 H       1  UNL11       0.0480
@<TRIPOS>BOND
     1     1     2    2
     2     2     3    1
     3     2    15   am
     4     3     4    1
     5     3    31    1
     6     3    32    1
     7     4     5    2
     8     5     6    1
     9     6     7   am
    10     6    33    1
    11     7     8    2
    12     7     9    1
    13     9    10   ar
    14    10    11   ar
    15    10    34    1
    16    11    12   ar
    17    11    35    1
    18    12    13   ar
    19    12    36    1
    20    13    14   ar
    21    13    37    1
    22    14     4    1
    23    14     9   ar
    24    15    16    1
    25    16    17    1
    26    16    38    1
    27    16    39    1
    28    17    18    1
    29    17    40    1
    30    17    41    1
    31    18    19    1
    32    18    29    1
    33    19    20   ar
    34    20    21   ar
    35    20    42    1
    36    21    22   ar
    37    21    43    1
    38    22    23   ar
    39    22    44    1
    40    23    24    1
    41    23    28   ar
    42    24    25    1
    43    24    26    1
    44    24    27    1
    45    28    19   ar
    46    28    45    1
    47    29    30    1
    48    29    46    1
    49    29    47    1
    50    30    15    1
    51    30    48    1
    52    30    49    1
@<TRIPOS>MOLECULE
*****
 49 52 0 0 0
SMALL
GASTEIGER

@<TRIPOS>ATOM
      1 O          -2.2542   -0.2420   -1.0083 O.2     1  UNL11      -0.2752
      2 C          -1.4459   -1.2094   -1.1218 C.2     1  UNL11       0.2217
      3 C          -1.8500   -2.3250   -2.0507 C.3     1  UNL11       0.0727
      4 C          -2.0191   -1.8242   -3.4282 C.2     1  UNL11       0.1237
      5 N          -1.8263   -0.5399   -3.7538 N.2     1  UNL11      -0.0071
      6 N          -1.9753   -0.1149   -5.0209 N.am    1  UNL11      -0.0356
      7 C          -2.3234   -0.9586   -6.0133 C.2     1  UNL11       0.4383
      8 O          -2.4685   -0.5879   -7.2060 O.2     1  UNL11      -0.2116
      9 C          -2.5317   -2.2787   -5.7328 C.ar    1  UNL11       0.1004
     10 C          -2.8853   -3.1482   -6.7331 C.ar    1  UNL11      -0.0441
     11 C          -3.1026   -4.4962   -6.4692 C.ar    1  UNL11      -0.0608
     12 C          -2.9535   -4.9286   -5.1847 C.ar    1  UNL11      -0.0611
     13 C          -2.5970   -4.0421   -4.1875 C.ar    1  UNL11      -0.0518
     14 C          -2.3768   -2.7055   -4.4251 C.ar    1  UNL11       0.0194
     15 N          -0.2484   -1.2257   -0.4167 N.am    1  UNL11      -0.2982
     16 C           0.1393   -0.1605    0.4714 C.3     1  UNL11       0.0304
     17 C           1.3950    0.5110   -0.0259 C.3     1  UNL11       0.0280
     18 N           2.3868   -0.4905   -0.3058 N.pl3   1  UNL11      -0.3269
     19 C           3.7347   -0.1830    0.0553 C.ar    1  UNL11       0.0303
     20 C           4.7895   -0.6832   -0.6379 C.ar    1  UNL11      -0.0406
     21 C           6.1118   -0.4147   -0.2717 C.ar    1  UNL11      -0.0595
     22 C           6.3500    0.3804    0.8255 C.ar    1  UNL11      -0.0500
     23 C           5.2922    0.8936    1.5386 C.ar    1  UNL11       0.0566
     24 C           5.5692    1.7352    2.7299 C.3     1  UNL11       0.4175
     25 F           6.9294    1.8804    2.9527 F       1  UNL11      -0.1659
     26 F           4.9808    1.1800    3.8463 F       1  UNL11      -0.1659
     27 F           5.0112    2.9984    2.5356 F       1  UNL11      -0.1659
     28 C           3.9759    0.6125    1.1541 C.ar    1  UNL11      -0.0290
     29 C           2.0744   -1.7351   -0.9126 C.3     1  UNL11       0.0280
     30 C           0.7061   -2.2945   -0.5668 C.3     1  UNL11       0.0304
     31 H          -1.1474   -3.1394   -1.9197 H       1  UNL11       0.0425
     32 H          -2.8713   -2.6316   -1.6373 H       1  UNL11       0.0425
     33 H          -1.8251    0.8870   -5.2817 H       1  UNL11       0.4829
     34 H          -3.0168   -2.8478   -7.7677 H       1  UNL11       0.0627
     35 H          -3.3802   -5.1666   -7.2683 H       1  UNL11       0.0618
     36 H          -3.1159   -5.9910   -4.9429 H       1  UNL11       0.0618
     37 H          -2.4950   -4.4423   -3.1909 H       1  UNL11       0.0624
     38 H           0.4480   -0.6931    1.4241 H       1  UNL11       0.0480
     39 H          -0.6512    0.5195    0.7841 H       1  UNL11       0.0480
     40 H           1.2195    1.0671   -0.9763 H       1  UNL11       0.0479
     41 H           1.7076    1.2247    0.7648 H       1  UNL11       0.0479
     42 H           4.6403   -1.2996   -1.4904 H       1  UNL11       0.0636
     43 H           6.9463   -0.8066   -0.8262 H       1  UNL11       0.0618
     44 H           7.3679    0.6194    1.1472 H       1  UNL11       0.0623
     45 H           3.1536    1.0255    1.7351 H       1  UNL11       0.0641
     46 H           2.0652   -1.5733   -2.0190 H       1  UNL11       0.0479
     47 H           2.8797   -2.5032   -0.7434 H       1  UNL11       0.0479
     48 H           0.4448   -3.0539   -1.3056 H       1  UNL11       0.0480
     49 H           0.8133   -2.7794    0.4248 H       1  UNL11       0.0480
@<TRIPOS>BOND
     1     1     2    2
     2     2     3    1
     3     2    15   am
     4     3     4    1
     5     3    31    1
     6     3    32    1
     7     4     5    2
     8     5     6    1
     9     6     7   am
    10     6    33    1
    11     7     8    2
    12     7     9    1
    13     9    10   ar
    14    10    11   ar
    15    10    34    1
    16    11    12   ar
    17    11    35    1
    18    12    13   ar
    19    12    36    1
    20    13    14   ar
    21    13    37    1
    22    14     4    1
    23    14     9   ar
    24    15    16    1
    25    16    17    1
    26    16    38    1
    27    16    39    1
    28    17    18    1
    29    17    40    1
    30    17    41    1
    31    18    19    1
    32    18    29    1
    33    19    20   ar
    34    20    21   ar
    35    20    42    1
    36    21    22   ar
    37    21    43    1
    38    22    23   ar
    39    22    44    1
    40    23    24    1
    41    23    28   ar
    42    24    25    1
    43    24    26    1
    44    24    27    1
    45    28    19   ar
    46    28    45    1
    47    29    30    1
    48    29    46    1
    49    29    47    1
    50    30    15    1
    51    30    48    1
    52    30    49    1
@<TRIPOS>MOLECULE
*****
 49 52 0 0 0
SMALL
GASTEIGER

@<TRIPOS>ATOM
      1 O          -2.2542   -0.2420   -1.0083 O.2     1  UNL11      -0.2752
      2 C          -1.4459   -1.2094   -1.1218 C.2     1  UNL11       0.2217
      3 C          -1.8500   -2.3250   -2.0507 C.3     1  UNL11       0.0727
      4 C          -2.0191   -1.8242   -3.4282 C.2     1  UNL11       0.1237
      5 N          -1.8263   -0.5399   -3.7538 N.2     1  UNL11      -0.0071
      6 N          -1.9753   -0.1149   -5.0209 N.am    1  UNL11      -0.0356
      7 C          -2.3234   -0.9586   -6.0133 C.2     1  UNL11       0.4383
      8 O          -2.4685   -0.5879   -7.2060 O.2     1  UNL11      -0.2116
      9 C          -2.5317   -2.2787   -5.7328 C.ar    1  UNL11       0.1004
     10 C          -2.8853   -3.1482   -6.7331 C.ar    1  UNL11      -0.0441
     11 C          -3.1026   -4.4962   -6.4692 C.ar    1  UNL11      -0.0608
     12 C          -2.9535   -4.9286   -5.1847 C.ar    1  UNL11      -0.0611
     13 C          -2.5970   -4.0421   -4.1875 C.ar    1  UNL11      -0.0518
     14 C          -2.3768   -2.7055   -4.4251 C.ar    1  UNL11       0.0194
     15 N          -0.2484   -1.2257   -0.4167 N.am    1  UNL11      -0.2982
     16 C           0.1393   -0.1605    0.4714 C.3     1  UNL11       0.0304
     17 C           1.3950    0.5110   -0.0259 C.3     1  UNL11       0.0280
     18 N           2.3868   -0.4905   -0.3058 N.pl3   1  UNL11      -0.3269
     19 C           3.7347   -0.1830    0.0553 C.ar    1  UNL11       0.0303
     20 C           4.6137   -1.1523    0.4175 C.ar    1  UNL11      -0.0406
     21 C           5.9246   -0.8575    0.8044 C.ar    1  UNL11      -0.0595
     22 C           6.3347    0.4558    0.8187 C.ar    1  UNL11      -0.0500
     23 C           5.4556    1.4489    0.4555 C.ar    1  UNL11       0.0566
     24 C           5.9113    2.8615    0.4940 C.3     1  UNL11       0.4175
     25 F           7.2273    2.9666    0.9158 F       1  UNL11      -0.1659
     26 F           5.1024    3.5948    1.3360 F       1  UNL11      -0.1659
     27 F           5.8068    3.4093   -0.7842 F       1  UNL11      -0.1659
     28 C           4.1477    1.1314    0.0710 C.ar    1  UNL11      -0.0290
     29 C           2.0744   -1.7351   -0.9126 C.3     1  UNL11       0.0280
     30 C           0.7061   -2.2945   -0.5668 C.3     1  UNL11       0.0304
     31 H          -1.1474   -3.1394   -1.9197 H       1  UNL11       0.0425
     32 H          -2.8713   -2.6316   -1.6373 H       1  UNL11       0.0425
     33 H          -1.8251    0.8870   -5.2817 H       1  UNL11       0.4829
     34 H          -3.0168   -2.8478   -7.7677 H       1  UNL11       0.0627
     35 H          -3.3802   -5.1666   -7.2683 H       1  UNL11       0.0618
     36 H          -3.1159   -5.9910   -4.9429 H       1  UNL11       0.0618
     37 H          -2.4950   -4.4423   -3.1909 H       1  UNL11       0.0624
     38 H           0.4480   -0.6931    1.4241 H       1  UNL11       0.0480
     39 H          -0.6512    0.5195    0.7841 H       1  UNL11       0.0480
     40 H           1.2195    1.0671   -0.9763 H       1  UNL11       0.0479
     41 H           1.7076    1.2247    0.7648 H       1  UNL11       0.0479
     42 H           4.3294   -2.1760    0.4164 H       1  UNL11       0.0636
     43 H           6.6216   -1.6273    1.0847 H       1  UNL11       0.0618
     44 H           7.3515    0.7331    1.1115 H       1  UNL11       0.0623
     45 H           3.4672    1.9333   -0.2084 H       1  UNL11       0.0641
     46 H           2.0652   -1.5733   -2.0190 H       1  UNL11       0.0479
     47 H           2.8797   -2.5032   -0.7434 H       1  UNL11       0.0479
     48 H           0.4448   -3.0539   -1.3056 H       1  UNL11       0.0480
     49 H           0.8133   -2.7794    0.4248 H       1  UNL11       0.0480
@<TRIPOS>BOND
     1     1     2    2
     2     2     3    1
     3     2    15   am
     4     3     4    1
     5     3    31    1
     6     3    32    1
     7     4     5    2
     8     5     6    1
     9     6     7   am
    10     6    33    1
    11     7     8    2
    12     7     9    1
    13     9    10   ar
    14    10    11   ar
    15    10    34    1
    16    11    12   ar
    17    11    35    1
    18    12    13   ar
    19    12    36    1
    20    13    14   ar
    21    13    37    1
    22    14     4    1
    23    14     9   ar
    24    15    16    1
    25    16    17    1
    26    16    38    1
    27    16    39    1
    28    17    18    1
    29    17    40    1
    30    17    41    1
    31    18    19    1
    32    18    29    1
    33    19    20   ar
    34    20    21   ar
    35    20    42    1
    36    21    22   ar
    37    21    43    1
    38    22    23   ar
    39    22    44    1
    40    23    24    1
    41    23    28   ar
    42    24    25    1
    43    24    26    1
    44    24    27    1
    45    28    19   ar
    46    28    45    1
    47    29    30    1
    48    29    46    1
    49    29    47    1
    50    30    15    1
    51    30    48    1
    52    30    49    1
