@<TRIPOS>MOLECULE
*****
 48 50 0 0 0
SMALL
GASTEIGER

@<TRIPOS>ATOM
      1 C           6.6058    5.0134   -1.1404 C.3     1  UNL11      -0.0167
      2 C           5.4373    4.2141   -0.6857 C.2     1  UNL11       0.1045
      3 C           5.0114    3.0630   -1.3152 C.2     1  UNL11      -0.0218
      4 C           3.9164    2.3280   -0.8759 C.2     1  UNL11       0.0751
      5 C           3.5076    1.1188   -1.5828 C.3     1  UNL11       0.0074
      6 C           2.0652    0.8085   -1.5398 C.ar    1  UNL11      -0.0426
      7 C           1.5215   -0.3018   -2.1436 C.ar    1  UNL11      -0.0564
      8 C           0.1618   -0.5797   -2.0855 C.ar    1  UNL11      -0.0351
      9 C          -0.7139    0.2544   -1.4128 C.ar    1  UNL11       0.1055
     10 S          -2.4357   -0.1100   -1.3511 S.O2    1  UNL11       0.0611
     11 O          -3.1365    1.2307   -1.2480 O.2     1  UNL11      -0.1528
     12 O          -2.8974   -0.7282   -2.6359 O.2     1  UNL11      -0.1528
     13 N          -2.7907   -1.0651    0.0112 N.3     1  UNL11      -0.1738
     14 C          -2.7078   -2.4575   -0.2625 C.3     1  UNL11       0.0208
     15 C          -1.6458   -3.1681    0.5469 C.3     1  UNL11      -0.0385
     16 C          -0.3781   -2.3813    0.6464 C.3     1  UNL11      -0.0504
     17 C          -0.6359   -0.9974    1.1800 C.3     1  UNL11      -0.0359
     18 C          -2.1053   -0.6965    1.2063 C.3     1  UNL11       0.0291
     19 C          -2.3704    0.7103    1.6569 C.3     1  UNL11      -0.0478
     20 C          -0.1704    1.3716   -0.8055 C.ar    1  UNL11      -0.0351
     21 C           1.1836    1.6488   -0.8627 C.ar    1  UNL11      -0.0564
     22 C           3.2334    2.7690    0.2305 C.2     1  UNL11       0.4341
     23 O           2.2252    2.1802    0.7176 O.2     1  UNL11      -0.2120
     24 N           3.6805    3.9056    0.8247 N.am    1  UNL11      -0.0359
     25 N           4.7223    4.5947    0.3971 N.2     1  UNL11      -0.0085
     26 H           6.6721    5.0331   -2.2340 H       1  UNL11       0.0294
     27 H           6.5696    6.0080   -0.6737 H       1  UNL11       0.0294
     28 H           7.5119    4.4582   -0.7847 H       1  UNL11       0.0294
     29 H           5.5758    2.7477   -2.1842 H       1  UNL11       0.0643
     30 H           4.1296    0.2497   -1.2459 H       1  UNL11       0.0365
     31 H           3.7638    1.2289   -2.6785 H       1  UNL11       0.0365
     32 H           2.1985   -0.9636   -2.6809 H       1  UNL11       0.0621
     33 H          -0.2346   -1.4468   -2.5613 H       1  UNL11       0.0637
     34 H          -2.5780   -2.6671   -1.3397 H       1  UNL11       0.0444
     35 H          -3.6872   -2.9216    0.0359 H       1  UNL11       0.0444
     36 H          -2.0749   -3.4149    1.5339 H       1  UNL11       0.0278
     37 H          -1.4438   -4.1288    0.0206 H       1  UNL11       0.0278
     38 H           0.1483   -2.3531   -0.3151 H       1  UNL11       0.0266
     39 H           0.3004   -2.9634    1.3369 H       1  UNL11       0.0266
     40 H          -0.0237   -0.2261    0.6865 H       1  UNL11       0.0281
     41 H          -0.2980   -0.9979    2.2576 H       1  UNL11       0.0281
     42 H          -2.5314   -1.3547    2.0220 H       1  UNL11       0.0477
     43 H          -3.4647    0.8863    1.5432 H       1  UNL11       0.0245
     44 H          -1.7397    1.4736    1.2052 H       1  UNL11       0.0245
     45 H          -2.1791    0.7693    2.7683 H       1  UNL11       0.0245
     46 H          -0.8655    2.0250   -0.2817 H       1  UNL11       0.0637
     47 H           1.5578    2.5371   -0.3697 H       1  UNL11       0.0621
     48 H           3.1425    4.2330    1.6769 H       1  UNL11       0.4828
@<TRIPOS>BOND
     1     1     2    1
     2     1    26    1
     3     1    27    1
     4     1    28    1
     5     2     3    1
     6     3     4    2
     7     3    29    1
     8     4     5    1
     9     4    22    1
    10     5     6    1
    11     5    30    1
    12     5    31    1
    13     6     7   ar
    14     7     8   ar
    15     7    32    1
    16     8     9   ar
    17     8    33    1
    18     9    10    1
    19     9    20   ar
    20    10    11    2
    21    10    12    2
    22    10    13    1
    23    13    14    1
    24    14    15    1
    25    14    34    1
    26    14    35    1
    27    15    16    1
    28    15    36    1
    29    15    37    1
    30    16    17    1
    31    16    38    1
    32    16    39    1
    33    17    18    1
    34    17    40    1
    35    17    41    1
    36    18    19    1
    37    18    13    1
    38    18    42    1
    39    19    43    1
    40    19    44    1
    41    19    45    1
    42    20    21   ar
    43    20    46    1
    44    21     6   ar
    45    21    47    1
    46    22    23    2
    47    22    24   am
    48    24    25    1
    49    24    48    1
    50    25     2    2
@<TRIPOS>MOLECULE
*****
 48 50 0 0 0
SMALL
GASTEIGER

@<TRIPOS>ATOM
      1 C           5.0815   -2.9311   -4.0492 C.3     1  UNL11      -0.0167
      2 C           5.1471   -1.9955   -2.8954 C.2     1  UNL11       0.1045
      3 C           4.3251   -0.8961   -2.7596 C.2     1  UNL11      -0.0218
      4 C           4.4003   -0.0318   -1.6735 C.2     1  UNL11       0.0751
      5 C           3.5076    1.1188   -1.5828 C.3     1  UNL11       0.0074
      6 C           2.0652    0.8085   -1.5398 C.ar    1  UNL11      -0.0426
      7 C           1.5215   -0.3018   -2.1436 C.ar    1  UNL11      -0.0564
      8 C           0.1618   -0.5797   -2.0855 C.ar    1  UNL11      -0.0351
      9 C          -0.7139    0.2544   -1.4128 C.ar    1  UNL11       0.1055
     10 S          -2.4357   -0.1100   -1.3511 S.O2    1  UNL11       0.0611
     11 O          -3.0636    1.0064   -0.5395 O.2     1  UNL11      -0.1528
     12 O          -3.0476   -0.0324   -2.7170 O.2     1  UNL11      -0.1528
     13 N          -2.6972   -1.6088   -0.5900 N.3     1  UNL11      -0.1738
     14 C          -1.8733   -2.6397   -1.1183 C.3     1  UNL11       0.0208
     15 C          -0.9188   -3.2275   -0.1028 C.3     1  UNL11      -0.0385
     16 C          -0.2917   -2.1845    0.7661 C.3     1  UNL11      -0.0504
     17 C          -1.3367   -1.3287    1.4309 C.3     1  UNL11      -0.0359
     18 C          -2.6915   -1.5748    0.8357 C.3     1  UNL11       0.0291
     19 C          -3.7272   -0.6671    1.4322 C.3     1  UNL11      -0.0478
     20 C          -0.1704    1.3716   -0.8055 C.ar    1  UNL11      -0.0351
     21 C           1.1836    1.6488   -0.8627 C.ar    1  UNL11      -0.0564
     22 C           5.3322   -0.2862   -0.6979 C.2     1  UNL11       0.4341
     23 O           5.4882    0.4314    0.3323 O.2     1  UNL11      -0.2120
     24 N           6.1245   -1.3768   -0.8644 N.am    1  UNL11      -0.0359
     25 N           6.0428   -2.1901   -1.9013 N.2     1  UNL11      -0.0085
     26 H           4.8658   -2.3974   -4.9816 H       1  UNL11       0.0294
     27 H           5.9988   -3.5364   -4.0789 H       1  UNL11       0.0294
     28 H           4.1960   -3.5904   -3.8572 H       1  UNL11       0.0294
     29 H           3.6033   -0.7291   -3.5496 H       1  UNL11       0.0643
     30 H           3.7499    1.8559   -2.3913 H       1  UNL11       0.0365
     31 H           3.7278    1.6807   -0.6268 H       1  UNL11       0.0365
     32 H           2.1985   -0.9636   -2.6809 H       1  UNL11       0.0621
     33 H          -0.2346   -1.4468   -2.5613 H       1  UNL11       0.0637
     34 H          -1.3260   -2.3183   -2.0229 H       1  UNL11       0.0444
     35 H          -2.5454   -3.4828   -1.4362 H       1  UNL11       0.0444
     36 H          -1.4629   -3.9952    0.4750 H       1  UNL11       0.0278
     37 H          -0.1253   -3.7481   -0.6860 H       1  UNL11       0.0278
     38 H           0.4290   -1.5795    0.2032 H       1  UNL11       0.0266
     39 H           0.3250   -2.7413    1.5314 H       1  UNL11       0.0266
     40 H          -1.0509   -0.2663    1.4846 H       1  UNL11       0.0281
     41 H          -1.4005   -1.6719    2.5050 H       1  UNL11       0.0281
     42 H          -2.9812   -2.6161    1.1704 H       1  UNL11       0.0477
     43 H          -4.6709   -0.8347    0.8642 H       1  UNL11       0.0245
     44 H          -3.4357    0.3770    1.5280 H       1  UNL11       0.0245
     45 H          -3.9503   -1.0232    2.4804 H       1  UNL11       0.0245
     46 H          -0.8655    2.0250   -0.2817 H       1  UNL11       0.0637
     47 H           1.5578    2.5371   -0.3697 H       1  UNL11       0.0621
     48 H           6.8387   -1.5591   -0.1032 H       1  UNL11       0.4828
@<TRIPOS>BOND
     1     1     2    1
     2     1    26    1
     3     1    27    1
     4     1    28    1
     5     2     3    1
     6     3     4    2
     7     3    29    1
     8     4     5    1
     9     4    22    1
    10     5     6    1
    11     5    30    1
    12     5    31    1
    13     6     7   ar
    14     7     8   ar
    15     7    32    1
    16     8     9   ar
    17     8    33    1
    18     9    10    1
    19     9    20   ar
    20    10    11    2
    21    10    12    2
    22    10    13    1
    23    13    14    1
    24    14    15    1
    25    14    34    1
    26    14    35    1
    27    15    16    1
    28    15    36    1
    29    15    37    1
    30    16    17    1
    31    16    38    1
    32    16    39    1
    33    17    18    1
    34    17    40    1
    35    17    41    1
    36    18    19    1
    37    18    13    1
    38    18    42    1
    39    19    43    1
    40    19    44    1
    41    19    45    1
    42    20    21   ar
    43    20    46    1
    44    21     6   ar
    45    21    47    1
    46    22    23    2
    47    22    24   am
    48    24    25    1
    49    24    48    1
    50    25     2    2
@<TRIPOS>MOLECULE
*****
 48 50 0 0 0
SMALL
GASTEIGER

@<TRIPOS>ATOM
      1 C           4.9687    3.8214    2.3572 C.3     1  UNL11      -0.0167
      2 C           4.8742    2.5356    1.6163 C.2     1  UNL11       0.1045
      3 C           4.2560    2.4078    0.3899 C.2     1  UNL11      -0.0218
      4 C           4.1772    1.1972   -0.2888 C.2     1  UNL11       0.0751
      5 C           3.5076    1.1188   -1.5828 C.3     1  UNL11       0.0074
      6 C           2.0652    0.8085   -1.5398 C.ar    1  UNL11      -0.0426
      7 C           1.5215   -0.3018   -2.1436 C.ar    1  UNL11      -0.0564
      8 C           0.1618   -0.5797   -2.0855 C.ar    1  UNL11      -0.0351
      9 C          -0.7139    0.2544   -1.4128 C.ar    1  UNL11       0.1055
     10 S          -2.4357   -0.1100   -1.3511 S.O2    1  UNL11       0.0611
     11 O          -3.0636    1.0064   -0.5395 O.2     1  UNL11      -0.1528
     12 O          -3.0476   -0.0324   -2.7170 O.2     1  UNL11      -0.1528
     13 N          -2.6972   -1.6088   -0.5900 N.3     1  UNL11      -0.1738
     14 C          -2.0045   -1.7208    0.6463 C.3     1  UNL11       0.0208
     15 C          -2.9216   -1.8932    1.8367 C.3     1  UNL11      -0.0385
     16 C          -4.1242   -1.0073    1.7676 C.3     1  UNL11      -0.0504
     17 C          -4.8686   -1.1988    0.4732 C.3     1  UNL11      -0.0359
     18 C          -4.0620   -2.0118   -0.4956 C.3     1  UNL11       0.0291
     19 C          -4.7574   -2.1386   -1.8195 C.3     1  UNL11      -0.0478
     20 C          -0.1704    1.3716   -0.8055 C.ar    1  UNL11      -0.0351
     21 C           1.1836    1.6488   -0.8627 C.ar    1  UNL11      -0.0564
     22 C           4.7391    0.0854    0.2885 C.2     1  UNL11       0.4341
     23 O           4.7273   -1.0647   -0.2384 O.2     1  UNL11      -0.2120
     24 N           5.3392    0.2482    1.4962 N.am    1  UNL11      -0.0359
     25 N           5.4070    1.4042    2.1304 N.2     1  UNL11      -0.0085
     26 H           4.0581    4.4185    2.2342 H       1  UNL11       0.0294
     27 H           5.2361    3.6189    3.4041 H       1  UNL11       0.0294
     28 H           5.7889    4.4005    1.8595 H       1  UNL11       0.0294
     29 H           3.8249    3.3070   -0.0326 H       1  UNL11       0.0643
     30 H           4.0629    0.4191   -2.2594 H       1  UNL11       0.0365
     31 H           3.5892    2.1206   -2.1005 H       1  UNL11       0.0365
     32 H           2.1985   -0.9636   -2.6809 H       1  UNL11       0.0621
     33 H          -0.2346   -1.4468   -2.5613 H       1  UNL11       0.0637
     34 H          -1.3062   -0.8810    0.8143 H       1  UNL11       0.0444
     35 H          -1.3767   -2.6521    0.6011 H       1  UNL11       0.0444
     36 H          -3.1823   -2.9632    1.9166 H       1  UNL11       0.0278
     37 H          -2.3188   -1.6281    2.7352 H       1  UNL11       0.0278
     38 H          -3.8534    0.0432    1.9274 H       1  UNL11       0.0266
     39 H          -4.7698   -1.2831    2.6527 H       1  UNL11       0.0266
     40 H          -5.2594   -0.2559    0.0591 H       1  UNL11       0.0281
     41 H          -5.7827   -1.8168    0.7140 H       1  UNL11       0.0281
     42 H          -4.0456   -3.0590   -0.0674 H       1  UNL11       0.0477
     43 H          -4.0509   -2.6556   -2.5086 H       1  UNL11       0.0245
     44 H          -5.1838   -1.2186   -2.2147 H       1  UNL11       0.0245
     45 H          -5.6232   -2.8536   -1.6989 H       1  UNL11       0.0245
     46 H          -0.8655    2.0250   -0.2817 H       1  UNL11       0.0637
     47 H           1.5578    2.5371   -0.3697 H       1  UNL11       0.0621
     48 H           5.7675   -0.6192    1.9285 H       1  UNL11       0.4828
@<TRIPOS>BOND
     1     1     2    1
     2     1    26    1
     3     1    27    1
     4     1    28    1
     5     2     3    1
     6     3     4    2
     7     3    29    1
     8     4     5    1
     9     4    22    1
    10     5     6    1
    11     5    30    1
    12     5    31    1
    13     6     7   ar
    14     7     8   ar
    15     7    32    1
    16     8     9   ar
    17     8    33    1
    18     9    10    1
    19     9    20   ar
    20    10    11    2
    21    10    12    2
    22    10    13    1
    23    13    14    1
    24    14    15    1
    25    14    34    1
    26    14    35    1
    27    15    16    1
    28    15    36    1
    29    15    37    1
    30    16    17    1
    31    16    38    1
    32    16    39    1
    33    17    18    1
    34    17    40    1
    35    17    41    1
    36    18    19    1
    37    18    13    1
    38    18    42    1
    39    19    43    1
    40    19    44    1
    41    19    45    1
    42    20    21   ar
    43    20    46    1
    44    21     6   ar
    45    21    47    1
    46    22    23    2
    47    22    24   am
    48    24    25    1
    49    24    48    1
    50    25     2    2
@<TRIPOS>MOLECULE
*****
 48 50 0 0 0
SMALL
GASTEIGER

@<TRIPOS>ATOM
      1 C           7.3989    0.8329   -4.7034 C.3     1  UNL11      -0.0167
      2 C           5.9810    1.1707   -4.4093 C.2     1  UNL11       0.1045
      3 C           5.3997    1.0009   -3.1699 C.2     1  UNL11      -0.0218
      4 C           4.0720    1.3224   -2.9128 C.2     1  UNL11       0.0751
      5 C           3.5076    1.1188   -1.5828 C.3     1  UNL11       0.0074
      6 C           2.0652    0.8085   -1.5398 C.ar    1  UNL11      -0.0426
      7 C           1.5215   -0.3018   -2.1436 C.ar    1  UNL11      -0.0564
      8 C           0.1618   -0.5797   -2.0855 C.ar    1  UNL11      -0.0351
      9 C          -0.7139    0.2544   -1.4128 C.ar    1  UNL11       0.1055
     10 S          -2.4357   -0.1100   -1.3511 S.O2    1  UNL11       0.0611
     11 O          -3.0636    1.0064   -0.5395 O.2     1  UNL11      -0.1528
     12 O          -3.0476   -0.0324   -2.7170 O.2     1  UNL11      -0.1528
     13 N          -2.6972   -1.6088   -0.5900 N.3     1  UNL11      -0.1738
     14 C          -2.8754   -1.4833    0.8147 C.3     1  UNL11       0.0208
     15 C          -4.2359   -1.9404    1.2922 C.3     1  UNL11      -0.0385
     16 C          -5.3406   -1.4957    0.3879 C.3     1  UNL11      -0.0504
     17 C          -5.0883   -1.9252   -1.0327 C.3     1  UNL11      -0.0359
     18 C          -3.6873   -2.4346   -1.1996 C.3     1  UNL11       0.0291
     19 C          -3.3971   -2.7871   -2.6293 C.3     1  UNL11      -0.0478
     20 C          -0.1704    1.3716   -0.8055 C.ar    1  UNL11      -0.0351
     21 C           1.1836    1.6488   -0.8627 C.ar    1  UNL11      -0.0564
     22 C           3.3113    1.8296   -3.9370 C.2     1  UNL11       0.4341
     23 O           2.0950    2.1566   -3.8168 O.2     1  UNL11      -0.2120
     24 N           3.9161    1.9831   -5.1435 N.am    1  UNL11      -0.0359
     25 N           5.1787    1.6736   -5.3745 N.2     1  UNL11      -0.0085
     26 H           7.7121   -0.0690   -4.1657 H       1  UNL11       0.0294
     27 H           7.5417    0.7801   -5.7921 H       1  UNL11       0.0294
     28 H           8.0068    1.6735   -4.2796 H       1  UNL11       0.0294
     29 H           6.0321    0.5984   -2.3881 H       1  UNL11       0.0643
     30 H           3.7660    1.9851   -0.9206 H       1  UNL11       0.0365
     31 H           4.0239    0.2393   -1.0948 H       1  UNL11       0.0365
     32 H           2.1985   -0.9636   -2.6809 H       1  UNL11       0.0621
     33 H          -0.2346   -1.4468   -2.5613 H       1  UNL11       0.0637
     34 H          -2.6621   -0.4610    1.1757 H       1  UNL11       0.0444
     35 H          -2.1285   -2.1590    1.3139 H       1  UNL11       0.0444
     36 H          -4.2035   -3.0365    1.4213 H       1  UNL11       0.0278
     37 H          -4.3798   -1.4893    2.3005 H       1  UNL11       0.0278
     38 H          -5.5026   -0.4137    0.4611 H       1  UNL11       0.0266
     39 H          -6.2861   -1.9632    0.7923 H       1  UNL11       0.0266
     40 H          -5.3849   -1.1632   -1.7707 H       1  UNL11       0.0281
     41 H          -5.7665   -2.8066   -1.2296 H       1  UNL11       0.0281
     42 H          -3.6570   -3.4173   -0.6396 H       1  UNL11       0.0477
     43 H          -2.3155   -3.0482   -2.6856 H       1  UNL11       0.0245
     44 H          -3.7260   -2.0583   -3.3675 H       1  UNL11       0.0245
     45 H          -3.9418   -3.7450   -2.8766 H       1  UNL11       0.0245
     46 H          -0.8655    2.0250   -0.2817 H       1  UNL11       0.0637
     47 H           1.5578    2.5371   -0.3697 H       1  UNL11       0.0621
     48 H           3.3156    2.3751   -5.9235 H       1  UNL11       0.4828
@<TRIPOS>BOND
     1     1     2    1
     2     1    26    1
     3     1    27    1
     4     1    28    1
     5     2     3    1
     6     3     4    2
     7     3    29    1
     8     4     5    1
     9     4    22    1
    10     5     6    1
    11     5    30    1
    12     5    31    1
    13     6     7   ar
    14     7     8   ar
    15     7    32    1
    16     8     9   ar
    17     8    33    1
    18     9    10    1
    19     9    20   ar
    20    10    11    2
    21    10    12    2
    22    10    13    1
    23    13    14    1
    24    14    15    1
    25    14    34    1
    26    14    35    1
    27    15    16    1
    28    15    36    1
    29    15    37    1
    30    16    17    1
    31    16    38    1
    32    16    39    1
    33    17    18    1
    34    17    40    1
    35    17    41    1
    36    18    19    1
    37    18    13    1
    38    18    42    1
    39    19    43    1
    40    19    44    1
    41    19    45    1
    42    20    21   ar
    43    20    46    1
    44    21     6   ar
    45    21    47    1
    46    22    23    2
    47    22    24   am
    48    24    25    1
    49    24    48    1
    50    25     2    2
@<TRIPOS>MOLECULE
*****
 48 50 0 0 0
SMALL
GASTEIGER

@<TRIPOS>ATOM
      1 C           5.1262    1.9254   -6.2402 C.3     1  UNL11      -0.0167
      2 C           4.9975    1.0703   -5.0306 C.2     1  UNL11       0.1045
      3 C           4.3316    1.4633   -3.8883 C.2     1  UNL11      -0.0218
      4 C           4.2210    0.6503   -2.7662 C.2     1  UNL11       0.0751
      5 C           3.5076    1.1188   -1.5828 C.3     1  UNL11       0.0074
      6 C           2.0652    0.8085   -1.5398 C.ar    1  UNL11      -0.0426
      7 C           1.5215   -0.3018   -2.1436 C.ar    1  UNL11      -0.0564
      8 C           0.1618   -0.5797   -2.0855 C.ar    1  UNL11      -0.0351
      9 C          -0.7139    0.2544   -1.4128 C.ar    1  UNL11       0.1055
     10 S          -2.4357   -0.1100   -1.3511 S.O2    1  UNL11       0.0611
     11 O          -3.0636    1.0064   -0.5395 O.2     1  UNL11      -0.1528
     12 O          -3.0476   -0.0324   -2.7170 O.2     1  UNL11      -0.1528
     13 N          -2.6972   -1.6088   -0.5900 N.3     1  UNL11      -0.1738
     14 C          -2.7026   -2.6934   -1.5089 C.3     1  UNL11       0.0208
     15 C          -1.5986   -3.6974   -1.2617 C.3     1  UNL11      -0.0385
     16 C          -0.2940   -3.0458   -0.9310 C.3     1  UNL11      -0.0504
     17 C          -0.4375   -2.0962    0.2284 C.3     1  UNL11      -0.0359
     18 C          -1.8826   -1.8592    0.5535 C.3     1  UNL11       0.0291
     19 C          -2.0405   -0.8495    1.6526 C.3     1  UNL11      -0.0478
     20 C          -0.1704    1.3716   -0.8055 C.ar    1  UNL11      -0.0351
     21 C           1.1836    1.6488   -0.8627 C.ar    1  UNL11      -0.0564
     22 C           4.7995   -0.5944   -2.8003 C.2     1  UNL11       0.4341
     23 O           4.7608   -1.4163   -1.8392 O.2     1  UNL11      -0.2120
     24 N           5.4469   -0.9480   -3.9408 N.am    1  UNL11      -0.0359
     25 N           5.5448   -0.1658   -5.0000 N.2     1  UNL11      -0.0085
     26 H           5.2552    2.9795   -5.9696 H       1  UNL11       0.0294
     27 H           5.9219    1.5257   -6.8849 H       1  UNL11       0.0294
     28 H           4.1394    1.8589   -6.7671 H       1  UNL11       0.0294
     29 H           3.8890    2.4517   -3.9001 H       1  UNL11       0.0643
     30 H           3.7023    2.2112   -1.4260 H       1  UNL11       0.0365
     31 H           3.9530    0.6284   -0.6666 H       1  UNL11       0.0365
     32 H           2.1985   -0.9636   -2.6809 H       1  UNL11       0.0621
     33 H          -0.2346   -1.4468   -2.5613 H       1  UNL11       0.0637
     34 H          -2.6881   -2.3536   -2.5603 H       1  UNL11       0.0444
     35 H          -3.6674   -3.2528   -1.3689 H       1  UNL11       0.0444
     36 H          -1.9394   -4.3955   -0.4771 H       1  UNL11       0.0278
     37 H          -1.4914   -4.2809   -2.2045 H       1  UNL11       0.0278
     38 H           0.1365   -2.5504   -1.8093 H       1  UNL11       0.0266
     39 H           0.4227   -3.8834   -0.6842 H       1  UNL11       0.0266
     40 H           0.1567   -1.1768    0.1063 H       1  UNL11       0.0281
     41 H           0.0040   -2.6157    1.1288 H       1  UNL11       0.0281
     42 H          -2.2553   -2.8342    0.9903 H       1  UNL11       0.0477
     43 H          -3.1318   -0.6505    1.7556 H       1  UNL11       0.0245
     44 H          -1.4242    0.0428    1.5610 H       1  UNL11       0.0245
     45 H          -1.7389   -1.3347    2.6267 H       1  UNL11       0.0245
     46 H          -0.8655    2.0250   -0.2817 H       1  UNL11       0.0637
     47 H           1.5578    2.5371   -0.3697 H       1  UNL11       0.0621
     48 H           5.8883   -1.9112   -3.9510 H       1  UNL11       0.4828
@<TRIPOS>BOND
     1     1     2    1
     2     1    26    1
     3     1    27    1
     4     1    28    1
     5     2     3    1
     6     3     4    2
     7     3    29    1
     8     4     5    1
     9     4    22    1
    10     5     6    1
    11     5    30    1
    12     5    31    1
    13     6     7   ar
    14     7     8   ar
    15     7    32    1
    16     8     9   ar
    17     8    33    1
    18     9    10    1
    19     9    20   ar
    20    10    11    2
    21    10    12    2
    22    10    13    1
    23    13    14    1
    24    14    15    1
    25    14    34    1
    26    14    35    1
    27    15    16    1
    28    15    36    1
    29    15    37    1
    30    16    17    1
    31    16    38    1
    32    16    39    1
    33    17    18    1
    34    17    40    1
    35    17    41    1
    36    18    19    1
    37    18    13    1
    38    18    42    1
    39    19    43    1
    40    19    44    1
    41    19    45    1
    42    20    21   ar
    43    20    46    1
    44    21     6   ar
    45    21    47    1
    46    22    23    2
    47    22    24   am
    48    24    25    1
    49    24    48    1
    50    25     2    2
@<TRIPOS>MOLECULE
*****
 48 50 0 0 0
SMALL
GASTEIGER

@<TRIPOS>ATOM
      1 C           7.9336   -1.1983   -1.5253 C.3     1  UNL11      -0.0167
      2 C           6.5533   -1.0033   -1.0082 C.2     1  UNL11       0.1045
      3 C           5.6781   -0.0630   -1.5110 C.2     1  UNL11      -0.0218
      4 C           4.3904    0.1053   -1.0150 C.2     1  UNL11       0.0751
      5 C           3.5076    1.1188   -1.5828 C.3     1  UNL11       0.0074
      6 C           2.0652    0.8085   -1.5398 C.ar    1  UNL11      -0.0426
      7 C           1.5215   -0.3018   -2.1436 C.ar    1  UNL11      -0.0564
      8 C           0.1618   -0.5797   -2.0855 C.ar    1  UNL11      -0.0351
      9 C          -0.7139    0.2544   -1.4128 C.ar    1  UNL11       0.1055
     10 S          -2.4357   -0.1100   -1.3511 S.O2    1  UNL11       0.0611
     11 O          -3.1365    1.2307   -1.2480 O.2     1  UNL11      -0.1528
     12 O          -2.8974   -0.7282   -2.6359 O.2     1  UNL11      -0.1528
     13 N          -2.7907   -1.0651    0.0112 N.3     1  UNL11      -0.1738
     14 C          -2.7078   -2.4575   -0.2625 C.3     1  UNL11       0.0208
     15 C          -1.6458   -3.1681    0.5469 C.3     1  UNL11      -0.0385
     16 C          -0.3781   -2.3813    0.6464 C.3     1  UNL11      -0.0504
     17 C          -0.6359   -0.9974    1.1800 C.3     1  UNL11      -0.0359
     18 C          -2.1053   -0.6965    1.2063 C.3     1  UNL11       0.0291
     19 C          -2.3704    0.7103    1.6569 C.3     1  UNL11      -0.0478
     20 C          -0.1704    1.3716   -0.8055 C.ar    1  UNL11      -0.0351
     21 C           1.1836    1.6488   -0.8627 C.ar    1  UNL11      -0.0564
     22 C           3.9763   -0.6993    0.0175 C.2     1  UNL11       0.4341
     23 O           2.8283   -0.6343    0.5451 O.2     1  UNL11      -0.2120
     24 N           4.8641   -1.6136    0.4876 N.am    1  UNL11      -0.0359
     25 N           6.0849   -1.7632    0.0075 N.2     1  UNL11      -0.0085
     26 H           8.3920   -0.2428   -1.8042 H       1  UNL11       0.0294
     27 H           8.5156   -1.7811   -0.7972 H       1  UNL11       0.0294
     28 H           7.8234   -1.7790   -2.4774 H       1  UNL11       0.0294
     29 H           6.0415    0.5523   -2.3247 H       1  UNL11       0.0643
     30 H           3.8448    1.3835   -2.6182 H       1  UNL11       0.0365
     31 H           3.6305    2.0809   -1.0018 H       1  UNL11       0.0365
     32 H           2.1985   -0.9636   -2.6809 H       1  UNL11       0.0621
     33 H          -0.2346   -1.4468   -2.5613 H       1  UNL11       0.0637
     34 H          -2.5780   -2.6671   -1.3397 H       1  UNL11       0.0444
     35 H          -3.6872   -2.9216    0.0359 H       1  UNL11       0.0444
     36 H          -2.0749   -3.4149    1.5339 H       1  UNL11       0.0278
     37 H          -1.4438   -4.1288    0.0206 H       1  UNL11       0.0278
     38 H           0.1483   -2.3531   -0.3151 H       1  UNL11       0.0266
     39 H           0.3004   -2.9634    1.3369 H       1  UNL11       0.0266
     40 H          -0.0237   -0.2261    0.6865 H       1  UNL11       0.0281
     41 H          -0.2980   -0.9979    2.2576 H       1  UNL11       0.0281
     42 H          -2.5314   -1.3547    2.0220 H       1  UNL11       0.0477
     43 H          -3.4647    0.8863    1.5432 H       1  UNL11       0.0245
     44 H          -1.7397    1.4736    1.2052 H       1  UNL11       0.0245
     45 H          -2.1791    0.7693    2.7683 H       1  UNL11       0.0245
     46 H          -0.8655    2.0250   -0.2817 H       1  UNL11       0.0637
     47 H           1.5578    2.5371   -0.3697 H       1  UNL11       0.0621
     48 H           4.5295   -2.2264    1.2846 H       1  UNL11       0.4828
@<TRIPOS>BOND
     1     1     2    1
     2     1    26    1
     3     1    27    1
     4     1    28    1
     5     2     3    1
     6     3     4    2
     7     3    29    1
     8     4     5    1
     9     4    22    1
    10     5     6    1
    11     5    30    1
    12     5    31    1
    13     6     7   ar
    14     7     8   ar
    15     7    32    1
    16     8     9   ar
    17     8    33    1
    18     9    10    1
    19     9    20   ar
    20    10    11    2
    21    10    12    2
    22    10    13    1
    23    13    14    1
    24    14    15    1
    25    14    34    1
    26    14    35    1
    27    15    16    1
    28    15    36    1
    29    15    37    1
    30    16    17    1
    31    16    38    1
    32    16    39    1
    33    17    18    1
    34    17    40    1
    35    17    41    1
    36    18    19    1
    37    18    13    1
    38    18    42    1
    39    19    43    1
    40    19    44    1
    41    19    45    1
    42    20    21   ar
    43    20    46    1
    44    21     6   ar
    45    21    47    1
    46    22    23    2
    47    22    24   am
    48    24    25    1
    49    24    48    1
    50    25     2    2
@<TRIPOS>MOLECULE
*****
 48 50 0 0 0
SMALL
GASTEIGER

@<TRIPOS>ATOM
      1 C           5.6285   -0.3563   -5.8593 C.3     1  UNL11      -0.0167
      2 C           5.3595   -0.5259   -4.4068 C.2     1  UNL11       0.1045
      3 C           4.5794    0.3417   -3.6709 C.2     1  UNL11      -0.0218
      4 C           4.3384    0.1673   -2.3130 C.2     1  UNL11       0.0751
      5 C           3.5076    1.1188   -1.5828 C.3     1  UNL11       0.0074
      6 C           2.0652    0.8085   -1.5398 C.ar    1  UNL11      -0.0426
      7 C           1.5215   -0.3018   -2.1436 C.ar    1  UNL11      -0.0564
      8 C           0.1618   -0.5797   -2.0855 C.ar    1  UNL11      -0.0351
      9 C          -0.7139    0.2544   -1.4128 C.ar    1  UNL11       0.1055
     10 S          -2.4357   -0.1100   -1.3511 S.O2    1  UNL11       0.0611
     11 O          -3.1312    1.0818   -1.9798 O.2     1  UNL11      -0.1528
     12 O          -2.7631   -1.2912   -2.2135 O.2     1  UNL11      -0.1528
     13 N          -2.9429   -0.3034    0.2611 N.3     1  UNL11      -0.1738
     14 C          -2.5136    0.7614    1.0993 C.3     1  UNL11       0.0208
     15 C          -3.6545    1.5479    1.7057 C.3     1  UNL11      -0.0385
     16 C          -4.7568    1.8057    0.7287 C.3     1  UNL11      -0.0504
     17 C          -5.2464    0.5242    0.1087 C.3     1  UNL11      -0.0359
     18 C          -4.3244   -0.6149    0.4296 C.3     1  UNL11       0.0291
     19 C          -4.7559   -1.8803   -0.2522 C.3     1  UNL11      -0.0478
     20 C          -0.1704    1.3716   -0.8055 C.ar    1  UNL11      -0.0351
     21 C           1.1836    1.6488   -0.8627 C.ar    1  UNL11      -0.0564
     22 C           4.9016   -0.9142   -1.6820 C.2     1  UNL11       0.4341
     23 O           4.7494   -1.1711   -0.4526 O.2     1  UNL11      -0.2120
     24 N           5.6637   -1.7472   -2.4372 N.am    1  UNL11      -0.0359
     25 N           5.8848   -1.5700   -3.7268 N.2     1  UNL11      -0.0085
     26 H           5.7407    0.7018   -6.1215 H       1  UNL11       0.0294
     27 H           6.4839   -0.9842   -6.1464 H       1  UNL11       0.0294
     28 H           4.7034   -0.7094   -6.3840 H       1  UNL11       0.0294
     29 H           4.1530    1.1824   -4.2042 H       1  UNL11       0.0643
     30 H           3.6979    2.1582   -1.9559 H       1  UNL11       0.0365
     31 H           3.8455    1.1503   -0.5043 H       1  UNL11       0.0365
     32 H           2.1985   -0.9636   -2.6809 H       1  UNL11       0.0621
     33 H          -0.2346   -1.4468   -2.5613 H       1  UNL11       0.0637
     34 H          -1.8052    1.4387    0.5889 H       1  UNL11       0.0444
     35 H          -1.9547    0.3096    1.9636 H       1  UNL11       0.0444
     36 H          -3.9988    1.0123    2.6078 H       1  UNL11       0.0278
     37 H          -3.2214    2.5187    2.0384 H       1  UNL11       0.0278
     38 H          -4.4505    2.5328   -0.0328 H       1  UNL11       0.0266
     39 H          -5.5797    2.3166    1.3099 H       1  UNL11       0.0266
     40 H          -5.4831    0.6283   -0.9620 H       1  UNL11       0.0281
     41 H          -6.2302    0.2792    0.6062 H       1  UNL11       0.0281
     42 H          -4.4640   -0.8109    1.5352 H       1  UNL11       0.0477
     43 H          -3.9661   -2.6407   -0.0542 H       1  UNL11       0.0245
     44 H          -5.0328   -1.7771   -1.2996 H       1  UNL11       0.0245
     45 H          -5.6758   -2.2712    0.2736 H       1  UNL11       0.0245
     46 H          -0.8655    2.0250   -0.2817 H       1  UNL11       0.0637
     47 H           1.5578    2.5371   -0.3697 H       1  UNL11       0.0621
     48 H           6.0915   -2.5766   -1.9355 H       1  UNL11       0.4828
@<TRIPOS>BOND
     1     1     2    1
     2     1    26    1
     3     1    27    1
     4     1    28    1
     5     2     3    1
     6     3     4    2
     7     3    29    1
     8     4     5    1
     9     4    22    1
    10     5     6    1
    11     5    30    1
    12     5    31    1
    13     6     7   ar
    14     7     8   ar
    15     7    32    1
    16     8     9   ar
    17     8    33    1
    18     9    10    1
    19     9    20   ar
    20    10    11    2
    21    10    12    2
    22    10    13    1
    23    13    14    1
    24    14    15    1
    25    14    34    1
    26    14    35    1
    27    15    16    1
    28    15    36    1
    29    15    37    1
    30    16    17    1
    31    16    38    1
    32    16    39    1
    33    17    18    1
    34    17    40    1
    35    17    41    1
    36    18    19    1
    37    18    13    1
    38    18    42    1
    39    19    43    1
    40    19    44    1
    41    19    45    1
    42    20    21   ar
    43    20    46    1
    44    21     6   ar
    45    21    47    1
    46    22    23    2
    47    22    24   am
    48    24    25    1
    49    24    48    1
    50    25     2    2
@<TRIPOS>MOLECULE
*****
 48 50 0 0 0
SMALL
GASTEIGER

@<TRIPOS>ATOM
      1 C           5.1262    1.9254   -6.2402 C.3     1  UNL11      -0.0167
      2 C           4.9975    1.0703   -5.0306 C.2     1  UNL11       0.1045
      3 C           4.3316    1.4633   -3.8883 C.2     1  UNL11      -0.0218
      4 C           4.2210    0.6503   -2.7662 C.2     1  UNL11       0.0751
      5 C           3.5076    1.1188   -1.5828 C.3     1  UNL11       0.0074
      6 C           2.0652    0.8085   -1.5398 C.ar    1  UNL11      -0.0426
      7 C           1.5215   -0.3018   -2.1436 C.ar    1  UNL11      -0.0564
      8 C           0.1618   -0.5797   -2.0855 C.ar    1  UNL11      -0.0351
      9 C          -0.7139    0.2544   -1.4128 C.ar    1  UNL11       0.1055
     10 S          -2.4357   -0.1100   -1.3511 S.O2    1  UNL11       0.0611
     11 O          -2.5457   -1.4640   -0.6775 O.2     1  UNL11      -0.1528
     12 O          -3.1558    0.8605   -0.4647 O.2     1  UNL11      -0.1528
     13 N          -3.0829   -0.1810   -2.9227 N.3     1  UNL11      -0.1738
     14 C          -2.7251    0.9464   -3.7112 C.3     1  UNL11       0.0208
     15 C          -1.9001    0.5923   -4.9285 C.3     1  UNL11      -0.0385
     16 C          -0.8552   -0.4361   -4.6341 C.3     1  UNL11      -0.0504
     17 C          -1.4605   -1.6647   -4.0091 C.3     1  UNL11      -0.0359
     18 C          -2.8840   -1.4170   -3.6059 C.3     1  UNL11       0.0291
     19 C          -3.4721   -2.6069   -2.9055 C.3     1  UNL11      -0.0478
     20 C          -0.1704    1.3716   -0.8055 C.ar    1  UNL11      -0.0351
     21 C           1.1836    1.6488   -0.8627 C.ar    1  UNL11      -0.0564
     22 C           4.7995   -0.5944   -2.8003 C.2     1  UNL11       0.4341
     23 O           4.7608   -1.4163   -1.8392 O.2     1  UNL11      -0.2120
     24 N           5.4469   -0.9480   -3.9408 N.am    1  UNL11      -0.0359
     25 N           5.5448   -0.1658   -5.0000 N.2     1  UNL11      -0.0085
     26 H           5.2552    2.9795   -5.9696 H       1  UNL11       0.0294
     27 H           5.9219    1.5257   -6.8849 H       1  UNL11       0.0294
     28 H           4.1394    1.8589   -6.7671 H       1  UNL11       0.0294
     29 H           3.8890    2.4517   -3.9001 H       1  UNL11       0.0643
     30 H           3.7023    2.2112   -1.4260 H       1  UNL11       0.0365
     31 H           3.9530    0.6284   -0.6666 H       1  UNL11       0.0365
     32 H           2.1985   -0.9636   -2.6809 H       1  UNL11       0.0621
     33 H          -0.2346   -1.4468   -2.5613 H       1  UNL11       0.0637
     34 H          -2.2223    1.7315   -3.1182 H       1  UNL11       0.0444
     35 H          -3.6749    1.4028   -4.1026 H       1  UNL11       0.0444
     36 H          -2.5907    0.2827   -5.7326 H       1  UNL11       0.0278
     37 H          -1.4074    1.5360   -5.2561 H       1  UNL11       0.0278
     38 H          -0.0521   -0.0202   -4.0142 H       1  UNL11       0.0266
     39 H          -0.3673   -0.6813   -5.6230 H       1  UNL11       0.0266
     40 H          -0.8321   -2.0956   -3.2136 H       1  UNL11       0.0281
     41 H          -1.4974   -2.4537   -4.8163 H       1  UNL11       0.0281
     42 H          -3.4594   -1.3293   -4.5762 H       1  UNL11       0.0477
     43 H          -4.4819   -2.3045   -2.5450 H       1  UNL11       0.0245
     44 H          -2.8390   -3.0646   -2.1477 H       1  UNL11       0.0245
     45 H          -3.6653   -3.4117   -3.6739 H       1  UNL11       0.0245
     46 H          -0.8655    2.0250   -0.2817 H       1  UNL11       0.0637
     47 H           1.5578    2.5371   -0.3697 H       1  UNL11       0.0621
     48 H           5.8883   -1.9112   -3.9510 H       1  UNL11       0.4828
@<TRIPOS>BOND
     1     1     2    1
     2     1    26    1
     3     1    27    1
     4     1    28    1
     5     2     3    1
     6     3     4    2
     7     3    29    1
     8     4     5    1
     9     4    22    1
    10     5     6    1
    11     5    30    1
    12     5    31    1
    13     6     7   ar
    14     7     8   ar
    15     7    32    1
    16     8     9   ar
    17     8    33    1
    18     9    10    1
    19     9    20   ar
    20    10    11    2
    21    10    12    2
    22    10    13    1
    23    13    14    1
    24    14    15    1
    25    14    34    1
    26    14    35    1
    27    15    16    1
    28    15    36    1
    29    15    37    1
    30    16    17    1
    31    16    38    1
    32    16    39    1
    33    17    18    1
    34    17    40    1
    35    17    41    1
    36    18    19    1
    37    18    13    1
    38    18    42    1
    39    19    43    1
    40    19    44    1
    41    19    45    1
    42    20    21   ar
    43    20    46    1
    44    21     6   ar
    45    21    47    1
    46    22    23    2
    47    22    24   am
    48    24    25    1
    49    24    48    1
    50    25     2    2
@<TRIPOS>MOLECULE
*****
 48 50 0 0 0
SMALL
GASTEIGER

@<TRIPOS>ATOM
      1 C           5.6063    5.6523   -1.6552 C.3     1  UNL11      -0.0167
      2 C           4.9405    4.5311   -0.9406 C.2     1  UNL11       0.1045
      3 C           4.5376    3.3664   -1.5601 C.2     1  UNL11      -0.0218
      4 C           3.9164    2.3280   -0.8759 C.2     1  UNL11       0.0751
      5 C           3.5076    1.1188   -1.5828 C.3     1  UNL11       0.0074
      6 C           2.0652    0.8085   -1.5398 C.ar    1  UNL11      -0.0426
      7 C           1.5215   -0.3018   -2.1436 C.ar    1  UNL11      -0.0564
      8 C           0.1618   -0.5797   -2.0855 C.ar    1  UNL11      -0.0351
      9 C          -0.7139    0.2544   -1.4128 C.ar    1  UNL11       0.1055
     10 S          -2.4357   -0.1100   -1.3511 S.O2    1  UNL11       0.0611
     11 O          -2.7678   -0.2801    0.1186 O.2     1  UNL11      -0.1528
     12 O          -3.2460    1.0549   -1.8333 O.2     1  UNL11      -0.1528
     13 N          -2.7679   -1.5469   -2.1989 N.3     1  UNL11      -0.1738
     14 C          -2.6964   -2.6988   -1.3689 C.3     1  UNL11       0.0208
     15 C          -4.0096   -3.4404   -1.2537 C.3     1  UNL11      -0.0385
     16 C          -5.1774   -2.5190   -1.1005 C.3     1  UNL11      -0.0504
     17 C          -5.2198   -1.5036   -2.2111 C.3     1  UNL11      -0.0359
     18 C          -3.9457   -1.5191   -3.0027 C.3     1  UNL11       0.0291
     19 C          -3.9422   -0.4538   -4.0599 C.3     1  UNL11      -0.0478
     20 C          -0.1704    1.3716   -0.8055 C.ar    1  UNL11      -0.0351
     21 C           1.1836    1.6488   -0.8627 C.ar    1  UNL11      -0.0564
     22 C           3.6967    2.4712    0.4718 C.2     1  UNL11       0.4341
     23 O           3.1417    1.5924    1.1930 O.2     1  UNL11      -0.2120
     24 N           4.1061    3.6309    1.0485 N.am    1  UNL11      -0.0359
     25 N           4.6952    4.6099    0.3868 N.2     1  UNL11      -0.0085
     26 H           5.1927    5.7833   -2.6615 H       1  UNL11       0.0294
     27 H           5.5659    6.5563   -1.0310 H       1  UNL11       0.0294
     28 H           6.6714    5.3340   -1.7966 H       1  UNL11       0.0294
     29 H           4.7282    3.2911   -2.6236 H       1  UNL11       0.0643
     30 H           4.1296    0.2497   -1.2459 H       1  UNL11       0.0365
     31 H           3.7638    1.2289   -2.6785 H       1  UNL11       0.0365
     32 H           2.1985   -0.9636   -2.6809 H       1  UNL11       0.0621
     33 H          -0.2346   -1.4468   -2.5613 H       1  UNL11       0.0637
     34 H          -2.2922   -2.4699   -0.3663 H       1  UNL11       0.0444
     35 H          -1.9754   -3.4173   -1.8459 H       1  UNL11       0.0444
     36 H          -4.1037   -4.1088   -2.1275 H       1  UNL11       0.0278
     37 H          -3.9257   -4.0837   -0.3483 H       1  UNL11       0.0278
     38 H          -5.1789   -2.0404   -0.1140 H       1  UNL11       0.0266
     39 H          -6.0983   -3.1731   -1.1122 H       1  UNL11       0.0266
     40 H          -5.5279   -0.5036   -1.8670 H       1  UNL11       0.0281
     41 H          -6.0328   -1.8348   -2.9216 H       1  UNL11       0.0281
     42 H          -3.9563   -2.4988   -3.5686 H       1  UNL11       0.0477
     43 H          -2.9290   -0.4603   -4.5233 H       1  UNL11       0.0245
     44 H          -4.2865    0.5271   -3.7376 H       1  UNL11       0.0245
     45 H          -4.6432   -0.7712   -4.8864 H       1  UNL11       0.0245
     46 H          -0.8655    2.0250   -0.2817 H       1  UNL11       0.0637
     47 H           1.5578    2.5371   -0.3697 H       1  UNL11       0.0621
     48 H           3.9290    3.7262    2.0888 H       1  UNL11       0.4828
@<TRIPOS>BOND
     1     1     2    1
     2     1    26    1
     3     1    27    1
     4     1    28    1
     5     2     3    1
     6     3     4    2
     7     3    29    1
     8     4     5    1
     9     4    22    1
    10     5     6    1
    11     5    30    1
    12     5    31    1
    13     6     7   ar
    14     7     8   ar
    15     7    32    1
    16     8     9   ar
    17     8    33    1
    18     9    10    1
    19     9    20   ar
    20    10    11    2
    21    10    12    2
    22    10    13    1
    23    13    14    1
    24    14    15    1
    25    14    34    1
    26    14    35    1
    27    15    16    1
    28    15    36    1
    29    15    37    1
    30    16    17    1
    31    16    38    1
    32    16    39    1
    33    17    18    1
    34    17    40    1
    35    17    41    1
    36    18    19    1
    37    18    13    1
    38    18    42    1
    39    19    43    1
    40    19    44    1
    41    19    45    1
    42    20    21   ar
    43    20    46    1
    44    21     6   ar
    45    21    47    1
    46    22    23    2
    47    22    24   am
    48    24    25    1
    49    24    48    1
    50    25     2    2
@<TRIPOS>MOLECULE
*****
 48 50 0 0 0
SMALL
GASTEIGER

@<TRIPOS>ATOM
      1 C           7.1785    3.4378   -4.0543 C.3     1  UNL11      -0.0167
      2 C           5.7493    3.0647   -3.8846 C.2     1  UNL11       0.1045
      3 C           5.2842    2.2870   -2.8445 C.2     1  UNL11      -0.0218
      4 C           3.9437    1.9480   -2.7014 C.2     1  UNL11       0.0751
      5 C           3.5076    1.1188   -1.5828 C.3     1  UNL11       0.0074
      6 C           2.0652    0.8085   -1.5398 C.ar    1  UNL11      -0.0426
      7 C           1.5215   -0.3018   -2.1436 C.ar    1  UNL11      -0.0564
      8 C           0.1618   -0.5797   -2.0855 C.ar    1  UNL11      -0.0351
      9 C          -0.7139    0.2544   -1.4128 C.ar    1  UNL11       0.1055
     10 S          -2.4357   -0.1100   -1.3511 S.O2    1  UNL11       0.0611
     11 O          -3.1365    1.2307   -1.2480 O.2     1  UNL11      -0.1528
     12 O          -2.8974   -0.7282   -2.6359 O.2     1  UNL11      -0.1528
     13 N          -2.7907   -1.0651    0.0112 N.3     1  UNL11      -0.1738
     14 C          -2.2352   -0.5359    1.2079 C.3     1  UNL11       0.0208
     15 C          -3.2757   -0.1523    2.2365 C.3     1  UNL11      -0.0385
     16 C          -4.4559    0.5366    1.6294 C.3     1  UNL11      -0.0504
     17 C          -5.0595   -0.2884    0.5242 C.3     1  UNL11      -0.0359
     18 C          -4.1614   -1.4318    0.1549 C.3     1  UNL11       0.0291
     19 C          -4.7125   -2.2122   -1.0025 C.3     1  UNL11      -0.0478
     20 C          -0.1704    1.3716   -0.8055 C.ar    1  UNL11      -0.0351
     21 C           1.1836    1.6488   -0.8627 C.ar    1  UNL11      -0.0564
     22 C           3.0489    2.4081   -3.6355 C.2     1  UNL11       0.4341
     23 O           1.8082    2.1625   -3.6041 O.2     1  UNL11      -0.2120
     24 N           3.5419    3.1707   -4.6457 N.am    1  UNL11      -0.0359
     25 N           4.8181    3.4855   -4.7701 N.2     1  UNL11      -0.0085
     26 H           7.8412    2.6165   -3.7593 H       1  UNL11       0.0294
     27 H           7.3403    3.8004   -5.0795 H       1  UNL11       0.0294
     28 H           7.3664    4.2659   -3.3231 H       1  UNL11       0.0294
     29 H           6.0205    1.9433   -2.1284 H       1  UNL11       0.0643
     30 H           3.8666    1.5593   -0.6170 H       1  UNL11       0.0365
     31 H           4.0335    0.1195   -1.6387 H       1  UNL11       0.0365
     32 H           2.1985   -0.9636   -2.6809 H       1  UNL11       0.0621
     33 H          -0.2346   -1.4468   -2.5613 H       1  UNL11       0.0637
     34 H          -1.5511    0.3103    1.0154 H       1  UNL11       0.0444
     35 H          -1.6147   -1.3448    1.6814 H       1  UNL11       0.0444
     36 H          -3.5532   -1.0611    2.7989 H       1  UNL11       0.0278
     37 H          -2.7700    0.5396    2.9480 H       1  UNL11       0.0278
     38 H          -4.1941    1.5444    1.2857 H       1  UNL11       0.0266
     39 H          -5.1948    0.6942    2.4692 H       1  UNL11       0.0266
     40 H          -5.3951    0.3193   -0.3309 H       1  UNL11       0.0281
     41 H          -5.9997   -0.7528    0.9435 H       1  UNL11       0.0281
     42 H          -4.2005   -2.1403    1.0362 H       1  UNL11       0.0477
     43 H          -3.9412   -2.9661   -1.2818 H       1  UNL11       0.0245
     44 H          -5.0858   -1.6169   -1.8336 H       1  UNL11       0.0245
     45 H          -5.5928   -2.8174   -0.6359 H       1  UNL11       0.0245
     46 H          -0.8655    2.0250   -0.2817 H       1  UNL11       0.0637
     47 H           1.5578    2.5371   -0.3697 H       1  UNL11       0.0621
     48 H           2.8388    3.5175   -5.3585 H       1  UNL11       0.4828
@<TRIPOS>BOND
     1     1     2    1
     2     1    26    1
     3     1    27    1
     4     1    28    1
     5     2     3    1
     6     3     4    2
     7     3    29    1
     8     4     5    1
     9     4    22    1
    10     5     6    1
    11     5    30    1
    12     5    31    1
    13     6     7   ar
    14     7     8   ar
    15     7    32    1
    16     8     9   ar
    17     8    33    1
    18     9    10    1
    19     9    20   ar
    20    10    11    2
    21    10    12    2
    22    10    13    1
    23    13    14    1
    24    14    15    1
    25    14    34    1
    26    14    35    1
    27    15    16    1
    28    15    36    1
    29    15    37    1
    30    16    17    1
    31    16    38    1
    32    16    39    1
    33    17    18    1
    34    17    40    1
    35    17    41    1
    36    18    19    1
    37    18    13    1
    38    18    42    1
    39    19    43    1
    40    19    44    1
    41    19    45    1
    42    20    21   ar
    43    20    46    1
    44    21     6   ar
    45    21    47    1
    46    22    23    2
    47    22    24   am
    48    24    25    1
    49    24    48    1
    50    25     2    2
@<TRIPOS>MOLECULE
*****
 48 50 0 0 0
SMALL
GASTEIGER

@<TRIPOS>ATOM
      1 C           2.4533    5.7216    0.0496 C.3     1  UNL11      -0.0167
      2 C           3.3758    4.5642   -0.0922 C.2     1  UNL11       0.1045
      3 C           3.0407    3.4005   -0.7528 C.2     1  UNL11      -0.0218
      4 C           3.9164    2.3280   -0.8759 C.2     1  UNL11       0.0751
      5 C           3.5076    1.1188   -1.5828 C.3     1  UNL11       0.0074
      6 C           2.0652    0.8085   -1.5398 C.ar    1  UNL11      -0.0426
      7 C           1.5215   -0.3018   -2.1436 C.ar    1  UNL11      -0.0564
      8 C           0.1618   -0.5797   -2.0855 C.ar    1  UNL11      -0.0351
      9 C          -0.7139    0.2544   -1.4128 C.ar    1  UNL11       0.1055
     10 S          -2.4357   -0.1100   -1.3511 S.O2    1  UNL11       0.0611
     11 O          -2.9043   -0.1277   -2.7931 O.2     1  UNL11      -0.1528
     12 O          -2.6710   -1.4898   -0.8154 O.2     1  UNL11      -0.1528
     13 N          -3.2648    1.0920   -0.4783 N.3     1  UNL11      -0.1738
     14 C          -3.3541    0.7948    0.9090 C.3     1  UNL11       0.0208
     15 C          -2.6543    1.8074    1.7880 C.3     1  UNL11      -0.0385
     16 C          -1.3342    2.2355    1.2312 C.3     1  UNL11      -0.0504
     17 C          -1.4762    2.7428   -0.1791 C.3     1  UNL11      -0.0359
     18 C          -2.8361    2.4289   -0.7290 C.3     1  UNL11       0.0291
     19 C          -2.9612    2.8548   -2.1627 C.3     1  UNL11      -0.0478
     20 C          -0.1704    1.3716   -0.8055 C.ar    1  UNL11      -0.0351
     21 C           1.1836    1.6488   -0.8627 C.ar    1  UNL11      -0.0564
     22 C           5.1654    2.4352   -0.3158 C.2     1  UNL11       0.4341
     23 O           6.0415    1.5240   -0.3670 O.2     1  UNL11      -0.2120
     24 N           5.4609    3.5947    0.3269 N.am    1  UNL11      -0.0359
     25 N           4.6195    4.6063    0.4367 N.2     1  UNL11      -0.0085
     26 H           1.4189    5.3897    0.1940 H       1  UNL11       0.0294
     27 H           2.8262    6.3890    0.8396 H       1  UNL11       0.0294
     28 H           2.4742    6.2510   -0.9378 H       1  UNL11       0.0294
     29 H           2.0469    3.3542   -1.1808 H       1  UNL11       0.0643
     30 H           4.1296    0.2497   -1.2459 H       1  UNL11       0.0365
     31 H           3.7638    1.2289   -2.6785 H       1  UNL11       0.0365
     32 H           2.1985   -0.9636   -2.6809 H       1  UNL11       0.0621
     33 H          -0.2346   -1.4468   -2.5613 H       1  UNL11       0.0637
     34 H          -3.0054   -0.2273    1.1431 H       1  UNL11       0.0444
     35 H          -4.4404    0.8335    1.1957 H       1  UNL11       0.0444
     36 H          -3.3443    2.6538    1.9522 H       1  UNL11       0.0278
     37 H          -2.4962    1.3094    2.7717 H       1  UNL11       0.0278
     38 H          -0.5943    1.4291    1.2989 H       1  UNL11       0.0266
     39 H          -0.9506    3.0460    1.9182 H       1  UNL11       0.0266
     40 H          -0.6420    2.4385   -0.8308 H       1  UNL11       0.0281
     41 H          -1.4135    3.8692   -0.1257 H       1  UNL11       0.0281
     42 H          -3.5512    3.0945   -0.1582 H       1  UNL11       0.0477
     43 H          -3.9498    2.4900   -2.5242 H       1  UNL11       0.0245
     44 H          -2.1207    2.5952   -2.8035 H       1  UNL11       0.0245
     45 H          -3.0367    3.9812   -2.1933 H       1  UNL11       0.0245
     46 H          -0.8655    2.0250   -0.2817 H       1  UNL11       0.0637
     47 H           1.5578    2.5371   -0.3697 H       1  UNL11       0.0621
     48 H           6.4283    3.6616    0.7540 H       1  UNL11       0.4828
@<TRIPOS>BOND
     1     1     2    1
     2     1    26    1
     3     1    27    1
     4     1    28    1
     5     2     3    1
     6     3     4    2
     7     3    29    1
     8     4     5    1
     9     4    22    1
    10     5     6    1
    11     5    30    1
    12     5    31    1
    13     6     7   ar
    14     7     8   ar
    15     7    32    1
    16     8     9   ar
    17     8    33    1
    18     9    10    1
    19     9    20   ar
    20    10    11    2
    21    10    12    2
    22    10    13    1
    23    13    14    1
    24    14    15    1
    25    14    34    1
    26    14    35    1
    27    15    16    1
    28    15    36    1
    29    15    37    1
    30    16    17    1
    31    16    38    1
    32    16    39    1
    33    17    18    1
    34    17    40    1
    35    17    41    1
    36    18    19    1
    37    18    13    1
    38    18    42    1
    39    19    43    1
    40    19    44    1
    41    19    45    1
    42    20    21   ar
    43    20    46    1
    44    21     6   ar
    45    21    47    1
    46    22    23    2
    47    22    24   am
    48    24    25    1
    49    24    48    1
    50    25     2    2
@<TRIPOS>MOLECULE
*****
 48 50 0 0 0
SMALL
GASTEIGER

@<TRIPOS>ATOM
      1 C           6.9658   -0.1917    1.7766 C.3     1  UNL11      -0.0167
      2 C           6.0708   -0.5051    0.6314 C.2     1  UNL11       0.1045
      3 C           5.2205    0.4160    0.0558 C.2     1  UNL11      -0.0218
      4 C           4.3904    0.1053   -1.0150 C.2     1  UNL11       0.0751
      5 C           3.5076    1.1188   -1.5828 C.3     1  UNL11       0.0074
      6 C           2.0652    0.8085   -1.5398 C.ar    1  UNL11      -0.0426
      7 C           1.5215   -0.3018   -2.1436 C.ar    1  UNL11      -0.0564
      8 C           0.1618   -0.5797   -2.0855 C.ar    1  UNL11      -0.0351
      9 C          -0.7139    0.2544   -1.4128 C.ar    1  UNL11       0.1055
     10 S          -2.4357   -0.1100   -1.3511 S.O2    1  UNL11       0.0611
     11 O          -2.5457   -1.4640   -0.6775 O.2     1  UNL11      -0.1528
     12 O          -3.1558    0.8605   -0.4647 O.2     1  UNL11      -0.1528
     13 N          -3.0829   -0.1810   -2.9227 N.3     1  UNL11      -0.1738
     14 C          -3.5675    1.0782   -3.3703 C.3     1  UNL11       0.0208
     15 C          -2.8400    1.6053   -4.5872 C.3     1  UNL11      -0.0385
     16 C          -1.3618    1.3940   -4.5082 C.3     1  UNL11      -0.0504
     17 C          -1.0306   -0.0533   -4.2589 C.3     1  UNL11      -0.0359
     18 C          -2.2596   -0.8301   -3.8896 C.3     1  UNL11       0.0291
     19 C          -1.9295   -2.2558   -3.5567 C.3     1  UNL11      -0.0478
     20 C          -0.1704    1.3716   -0.8055 C.ar    1  UNL11      -0.0351
     21 C           1.1836    1.6488   -0.8627 C.ar    1  UNL11      -0.0564
     22 C           4.4212   -1.1719   -1.5179 C.2     1  UNL11       0.4341
     23 O           3.7111   -1.5648   -2.4885 O.2     1  UNL11      -0.2120
     24 N           5.2699   -2.0524   -0.9267 N.am    1  UNL11      -0.0359
     25 N           6.0533   -1.7442    0.0904 N.2     1  UNL11      -0.0085
     26 H           6.4836    0.4954    2.4811 H       1  UNL11       0.0294
     27 H           7.3165   -1.1292    2.2311 H       1  UNL11       0.0294
     28 H           7.8331    0.3687    1.3413 H       1  UNL11       0.0294
     29 H           5.2249    1.4124    0.4804 H       1  UNL11       0.0643
     30 H           3.8448    1.3835   -2.6182 H       1  UNL11       0.0365
     31 H           3.6305    2.0809   -1.0018 H       1  UNL11       0.0365
     32 H           2.1985   -0.9636   -2.6809 H       1  UNL11       0.0621
     33 H          -0.2346   -1.4468   -2.5613 H       1  UNL11       0.0637
     34 H          -3.5749    1.8357   -2.5659 H       1  UNL11       0.0444
     35 H          -4.6375    0.9384   -3.6852 H       1  UNL11       0.0444
     36 H          -3.2911    1.1435   -5.4830 H       1  UNL11       0.0278
     37 H          -3.0551    2.6974   -4.6300 H       1  UNL11       0.0278
     38 H          -0.9066    2.0490   -3.7558 H       1  UNL11       0.0266
     39 H          -0.9405    1.7431   -5.4965 H       1  UNL11       0.0266
     40 H          -0.1844   -0.1869   -3.5666 H       1  UNL11       0.0281
     41 H          -0.6767   -0.4785   -5.2435 H       1  UNL11       0.0281
     42 H          -2.8773   -0.8816   -4.8362 H       1  UNL11       0.0477
     43 H          -2.8692   -2.7290   -3.1900 H       1  UNL11       0.0245
     44 H          -1.0678   -2.3977   -2.9073 H       1  UNL11       0.0245
     45 H          -1.6854   -2.7974   -4.5171 H       1  UNL11       0.0245
     46 H          -0.8655    2.0250   -0.2817 H       1  UNL11       0.0637
     47 H           1.5578    2.5371   -0.3697 H       1  UNL11       0.0621
     48 H           5.2815   -3.0338   -1.3259 H       1  UNL11       0.4828
@<TRIPOS>BOND
     1     1     2    1
     2     1    26    1
     3     1    27    1
     4     1    28    1
     5     2     3    1
     6     3     4    2
     7     3    29    1
     8     4     5    1
     9     4    22    1
    10     5     6    1
    11     5    30    1
    12     5    31    1
    13     6     7   ar
    14     7     8   ar
    15     7    32    1
    16     8     9   ar
    17     8    33    1
    18     9    10    1
    19     9    20   ar
    20    10    11    2
    21    10    12    2
    22    10    13    1
    23    13    14    1
    24    14    15    1
    25    14    34    1
    26    14    35    1
    27    15    16    1
    28    15    36    1
    29    15    37    1
    30    16    17    1
    31    16    38    1
    32    16    39    1
    33    17    18    1
    34    17    40    1
    35    17    41    1
    36    18    19    1
    37    18    13    1
    38    18    42    1
    39    19    43    1
    40    19    44    1
    41    19    45    1
    42    20    21   ar
    43    20    46    1
    44    21     6   ar
    45    21    47    1
    46    22    23    2
    47    22    24   am
    48    24    25    1
    49    24    48    1
    50    25     2    2
@<TRIPOS>MOLECULE
*****
 48 50 0 0 0
SMALL
GASTEIGER

@<TRIPOS>ATOM
      1 C           4.6367    5.2113    1.0514 C.3     1  UNL11      -0.0167
      2 C           4.4002    4.5109   -0.2388 C.2     1  UNL11       0.1045
      3 C           4.0695    3.1748   -0.3298 C.2     1  UNL11      -0.0218
      4 C           3.8517    2.5362   -1.5452 C.2     1  UNL11       0.0751
      5 C           3.5076    1.1188   -1.5828 C.3     1  UNL11       0.0074
      6 C           2.0652    0.8085   -1.5398 C.ar    1  UNL11      -0.0426
      7 C           1.5215   -0.3018   -2.1436 C.ar    1  UNL11      -0.0564
      8 C           0.1618   -0.5797   -2.0855 C.ar    1  UNL11      -0.0351
      9 C          -0.7139    0.2544   -1.4128 C.ar    1  UNL11       0.1055
     10 S          -2.4357   -0.1100   -1.3511 S.O2    1  UNL11       0.0611
     11 O          -3.1365    1.2307   -1.2480 O.2     1  UNL11      -0.1528
     12 O          -2.8974   -0.7282   -2.6359 O.2     1  UNL11      -0.1528
     13 N          -2.7907   -1.0651    0.0112 N.3     1  UNL11      -0.1738
     14 C          -3.1168   -0.2851    1.1540 C.3     1  UNL11       0.0208
     15 C          -4.5247   -0.5140    1.6574 C.3     1  UNL11      -0.0385
     16 C          -5.5223   -0.6099    0.5477 C.3     1  UNL11      -0.0504
     17 C          -5.1237   -1.6603   -0.4543 C.3     1  UNL11      -0.0359
     18 C          -3.7175   -2.1251   -0.2154 C.3     1  UNL11       0.0291
     19 C          -3.2795   -3.1108   -1.2590 C.3     1  UNL11      -0.0478
     20 C          -0.1704    1.3716   -0.8055 C.ar    1  UNL11      -0.0351
     21 C           1.1836    1.6488   -0.8627 C.ar    1  UNL11      -0.0564
     22 C           3.9713    3.2689   -2.7001 C.2     1  UNL11       0.4341
     23 O           3.7952    2.7922   -3.8588 O.2     1  UNL11      -0.2120
     24 N           4.2983    4.5811   -2.5728 N.am    1  UNL11      -0.0359
     25 N           4.5027    5.1756   -1.4118 N.2     1  UNL11      -0.0085
     26 H           5.1461    4.5591    1.7698 H       1  UNL11       0.0294
     27 H           5.1556    6.1613    0.8595 H       1  UNL11       0.0294
     28 H           3.6210    5.4116    1.4803 H       1  UNL11       0.0294
     29 H           3.9846    2.6310    0.6030 H       1  UNL11       0.0643
     30 H           4.0751    0.5660   -0.7903 H       1  UNL11       0.0365
     31 H           3.8870    0.6737   -2.5504 H       1  UNL11       0.0365
     32 H           2.1985   -0.9636   -2.6809 H       1  UNL11       0.0621
     33 H          -0.2346   -1.4468   -2.5613 H       1  UNL11       0.0637
     34 H          -2.9339    0.7928    0.9933 H       1  UNL11       0.0444
     35 H          -2.4338   -0.6024    1.9884 H       1  UNL11       0.0444
     36 H          -4.5163   -1.4091    2.3039 H       1  UNL11       0.0278
     37 H          -4.7714    0.3609    2.3011 H       1  UNL11       0.0278
     38 H          -5.6813    0.3647    0.0712 H       1  UNL11       0.0266
     39 H          -6.5099   -0.8651    1.0333 H       1  UNL11       0.0266
     40 H          -5.3327   -1.3630   -1.4941 H       1  UNL11       0.0281
     41 H          -5.7849   -2.5560   -0.2647 H       1  UNL11       0.0281
     42 H          -3.7562   -2.7129    0.7506 H       1  UNL11       0.0477
     43 H          -2.2005   -3.3189   -1.0756 H       1  UNL11       0.0245
     44 H          -3.5210   -2.8440   -2.2860 H       1  UNL11       0.0245
     45 H          -3.8034   -4.0918   -1.0631 H       1  UNL11       0.0245
     46 H          -0.8655    2.0250   -0.2817 H       1  UNL11       0.0637
     47 H           1.5578    2.5371   -0.3697 H       1  UNL11       0.0621
     48 H           4.3872    5.1324   -3.4732 H       1  UNL11       0.4828
@<TRIPOS>BOND
     1     1     2    1
     2     1    26    1
     3     1    27    1
     4     1    28    1
     5     2     3    1
     6     3     4    2
     7     3    29    1
     8     4     5    1
     9     4    22    1
    10     5     6    1
    11     5    30    1
    12     5    31    1
    13     6     7   ar
    14     7     8   ar
    15     7    32    1
    16     8     9   ar
    17     8    33    1
    18     9    10    1
    19     9    20   ar
    20    10    11    2
    21    10    12    2
    22    10    13    1
    23    13    14    1
    24    14    15    1
    25    14    34    1
    26    14    35    1
    27    15    16    1
    28    15    36    1
    29    15    37    1
    30    16    17    1
    31    16    38    1
    32    16    39    1
    33    17    18    1
    34    17    40    1
    35    17    41    1
    36    18    19    1
    37    18    13    1
    38    18    42    1
    39    19    43    1
    40    19    44    1
    41    19    45    1
    42    20    21   ar
    43    20    46    1
    44    21     6   ar
    45    21    47    1
    46    22    23    2
    47    22    24   am
    48    24    25    1
    49    24    48    1
    50    25     2    2
@<TRIPOS>MOLECULE
*****
 48 50 0 0 0
SMALL
GASTEIGER

@<TRIPOS>ATOM
      1 C           7.0513    2.4282   -4.8523 C.3     1  UNL11      -0.0167
      2 C           5.6852    2.5636   -4.2810 C.2     1  UNL11       0.1045
      3 C           5.2246    1.8077   -3.2230 C.2     1  UNL11      -0.0218
      4 C           3.9437    1.9480   -2.7014 C.2     1  UNL11       0.0751
      5 C           3.5076    1.1188   -1.5828 C.3     1  UNL11       0.0074
      6 C           2.0652    0.8085   -1.5398 C.ar    1  UNL11      -0.0426
      7 C           1.5215   -0.3018   -2.1436 C.ar    1  UNL11      -0.0564
      8 C           0.1618   -0.5797   -2.0855 C.ar    1  UNL11      -0.0351
      9 C          -0.7139    0.2544   -1.4128 C.ar    1  UNL11       0.1055
     10 S          -2.4357   -0.1100   -1.3511 S.O2    1  UNL11       0.0611
     11 O          -2.7678   -0.2801    0.1186 O.2     1  UNL11      -0.1528
     12 O          -3.2460    1.0549   -1.8333 O.2     1  UNL11      -0.1528
     13 N          -2.7679   -1.5469   -2.1989 N.3     1  UNL11      -0.1738
     14 C          -3.0681   -1.3148   -3.5689 C.3     1  UNL11       0.0208
     15 C          -2.0831   -1.9594   -4.5187 C.3     1  UNL11      -0.0385
     16 C          -0.6667   -1.8146   -4.0617 C.3     1  UNL11      -0.0504
     17 C          -0.4909   -2.3326   -2.6591 C.3     1  UNL11      -0.0359
     18 C          -1.8188   -2.5950   -2.0126 C.3     1  UNL11       0.0291
     19 C          -1.6589   -3.0316   -0.5856 C.3     1  UNL11      -0.0478
     20 C          -0.1704    1.3716   -0.8055 C.ar    1  UNL11      -0.0351
     21 C           1.1836    1.6488   -0.8627 C.ar    1  UNL11      -0.0564
     22 C           3.1057    2.8781   -3.2649 C.2     1  UNL11       0.4341
     23 O           1.9223    3.0908   -2.8716 O.2     1  UNL11      -0.2120
     24 N           3.5924    3.6041   -4.3047 N.am    1  UNL11      -0.0359
     25 N           4.8116    3.4609   -4.7908 N.2     1  UNL11      -0.0085
     26 H           7.3793    1.3827   -4.8540 H       1  UNL11       0.0294
     27 H           7.0819    2.9110   -5.8395 H       1  UNL11       0.0294
     28 H           7.7328    2.9661   -4.1438 H       1  UNL11       0.0294
     29 H           5.9149    1.0850   -2.8058 H       1  UNL11       0.0643
     30 H           3.8666    1.5593   -0.6170 H       1  UNL11       0.0365
     31 H           4.0335    0.1195   -1.6387 H       1  UNL11       0.0365
     32 H           2.1985   -0.9636   -2.6809 H       1  UNL11       0.0621
     33 H          -0.2346   -1.4468   -2.5613 H       1  UNL11       0.0637
     34 H          -3.1799   -0.2397   -3.7983 H       1  UNL11       0.0444
     35 H          -4.0634   -1.7909   -3.7842 H       1  UNL11       0.0444
     36 H          -2.3819   -3.0130   -4.6595 H       1  UNL11       0.0278
     37 H          -2.2101   -1.4424   -5.4972 H       1  UNL11       0.0278
     38 H          -0.3227   -0.7778   -4.1567 H       1  UNL11       0.0266
     39 H          -0.0381   -2.4020   -4.7938 H       1  UNL11       0.0266
     40 H           0.1931   -1.7148   -2.0560 H       1  UNL11       0.0281
     41 H           0.0177   -3.3371   -2.7465 H       1  UNL11       0.0281
     42 H          -2.2425   -3.4946   -2.5525 H       1  UNL11       0.0477
     43 H          -2.6822   -3.0976   -0.1502 H       1  UNL11       0.0245
     44 H          -0.9519   -2.4522    0.0051 H       1  UNL11       0.0245
     45 H          -1.2703   -4.0919   -0.5800 H       1  UNL11       0.0245
     46 H          -0.8655    2.0250   -0.2817 H       1  UNL11       0.0637
     47 H           1.5578    2.5371   -0.3697 H       1  UNL11       0.0621
     48 H           2.9334    4.3172   -4.7287 H       1  UNL11       0.4828
@<TRIPOS>BOND
     1     1     2    1
     2     1    26    1
     3     1    27    1
     4     1    28    1
     5     2     3    1
     6     3     4    2
     7     3    29    1
     8     4     5    1
     9     4    22    1
    10     5     6    1
    11     5    30    1
    12     5    31    1
    13     6     7   ar
    14     7     8   ar
    15     7    32    1
    16     8     9   ar
    17     8    33    1
    18     9    10    1
    19     9    20   ar
    20    10    11    2
    21    10    12    2
    22    10    13    1
    23    13    14    1
    24    14    15    1
    25    14    34    1
    26    14    35    1
    27    15    16    1
    28    15    36    1
    29    15    37    1
    30    16    17    1
    31    16    38    1
    32    16    39    1
    33    17    18    1
    34    17    40    1
    35    17    41    1
    36    18    19    1
    37    18    13    1
    38    18    42    1
    39    19    43    1
    40    19    44    1
    41    19    45    1
    42    20    21   ar
    43    20    46    1
    44    21     6   ar
    45    21    47    1
    46    22    23    2
    47    22    24   am
    48    24    25    1
    49    24    48    1
    50    25     2    2
@<TRIPOS>MOLECULE
*****
 48 50 0 0 0
SMALL
GASTEIGER

@<TRIPOS>ATOM
      1 C           4.8802   -1.0601    2.6986 C.3     1  UNL11      -0.0167
      2 C           4.8333    0.1116    1.7843 C.2     1  UNL11       0.1045
      3 C           4.2113    0.0917    0.5533 C.2     1  UNL11      -0.0218
      4 C           4.1772    1.1972   -0.2888 C.2     1  UNL11       0.0751
      5 C           3.5076    1.1188   -1.5828 C.3     1  UNL11       0.0074
      6 C           2.0652    0.8085   -1.5398 C.ar    1  UNL11      -0.0426
      7 C           1.5215   -0.3018   -2.1436 C.ar    1  UNL11      -0.0564
      8 C           0.1618   -0.5797   -2.0855 C.ar    1  UNL11      -0.0351
      9 C          -0.7139    0.2544   -1.4128 C.ar    1  UNL11       0.1055
     10 S          -2.4357   -0.1100   -1.3511 S.O2    1  UNL11       0.0611
     11 O          -3.0636    1.0064   -0.5395 O.2     1  UNL11      -0.1528
     12 O          -3.0476   -0.0324   -2.7170 O.2     1  UNL11      -0.1528
     13 N          -2.6972   -1.6088   -0.5900 N.3     1  UNL11      -0.1738
     14 C          -2.8754   -1.4833    0.8147 C.3     1  UNL11       0.0208
     15 C          -4.2359   -1.9404    1.2922 C.3     1  UNL11      -0.0385
     16 C          -5.3406   -1.4957    0.3879 C.3     1  UNL11      -0.0504
     17 C          -5.0883   -1.9252   -1.0327 C.3     1  UNL11      -0.0359
     18 C          -3.6873   -2.4346   -1.1996 C.3     1  UNL11       0.0291
     19 C          -3.3971   -2.7871   -2.6293 C.3     1  UNL11      -0.0478
     20 C          -0.1704    1.3716   -0.8055 C.ar    1  UNL11      -0.0351
     21 C           1.1836    1.6488   -0.8627 C.ar    1  UNL11      -0.0564
     22 C           4.7886    2.3546    0.1254 C.2     1  UNL11       0.4341
     23 O           4.8189    3.4192   -0.5574 O.2     1  UNL11      -0.2120
     24 N           5.3912    2.3380    1.3427 N.am    1  UNL11      -0.0359
     25 N           5.4164    1.2807    2.1331 N.2     1  UNL11      -0.0085
     26 H           4.9917   -1.9960    2.1396 H       1  UNL11       0.0294
     27 H           5.6555   -0.8959    3.4605 H       1  UNL11       0.0294
     28 H           3.8718   -1.1077    3.1852 H       1  UNL11       0.0294
     29 H           3.7406   -0.8393    0.2621 H       1  UNL11       0.0643
     30 H           4.0629    0.4191   -2.2594 H       1  UNL11       0.0365
     31 H           3.5892    2.1206   -2.1005 H       1  UNL11       0.0365
     32 H           2.1985   -0.9636   -2.6809 H       1  UNL11       0.0621
     33 H          -0.2346   -1.4468   -2.5613 H       1  UNL11       0.0637
     34 H          -2.6621   -0.4610    1.1757 H       1  UNL11       0.0444
     35 H          -2.1285   -2.1590    1.3139 H       1  UNL11       0.0444
     36 H          -4.2035   -3.0365    1.4213 H       1  UNL11       0.0278
     37 H          -4.3798   -1.4893    2.3005 H       1  UNL11       0.0278
     38 H          -5.5026   -0.4137    0.4611 H       1  UNL11       0.0266
     39 H          -6.2861   -1.9632    0.7923 H       1  UNL11       0.0266
     40 H          -5.3849   -1.1632   -1.7707 H       1  UNL11       0.0281
     41 H          -5.7665   -2.8066   -1.2296 H       1  UNL11       0.0281
     42 H          -3.6570   -3.4173   -0.6396 H       1  UNL11       0.0477
     43 H          -2.3155   -3.0482   -2.6856 H       1  UNL11       0.0245
     44 H          -3.7260   -2.0583   -3.3675 H       1  UNL11       0.0245
     45 H          -3.9418   -3.7450   -2.8766 H       1  UNL11       0.0245
     46 H          -0.8655    2.0250   -0.2817 H       1  UNL11       0.0637
     47 H           1.5578    2.5371   -0.3697 H       1  UNL11       0.0621
     48 H           5.8588    3.2385    1.6476 H       1  UNL11       0.4828
@<TRIPOS>BOND
     1     1     2    1
     2     1    26    1
     3     1    27    1
     4     1    28    1
     5     2     3    1
     6     3     4    2
     7     3    29    1
     8     4     5    1
     9     4    22    1
    10     5     6    1
    11     5    30    1
    12     5    31    1
    13     6     7   ar
    14     7     8   ar
    15     7    32    1
    16     8     9   ar
    17     8    33    1
    18     9    10    1
    19     9    20   ar
    20    10    11    2
    21    10    12    2
    22    10    13    1
    23    13    14    1
    24    14    15    1
    25    14    34    1
    26    14    35    1
    27    15    16    1
    28    15    36    1
    29    15    37    1
    30    16    17    1
    31    16    38    1
    32    16    39    1
    33    17    18    1
    34    17    40    1
    35    17    41    1
    36    18    19    1
    37    18    13    1
    38    18    42    1
    39    19    43    1
    40    19    44    1
    41    19    45    1
    42    20    21   ar
    43    20    46    1
    44    21     6   ar
    45    21    47    1
    46    22    23    2
    47    22    24   am
    48    24    25    1
    49    24    48    1
    50    25     2    2
@<TRIPOS>MOLECULE
*****
 48 50 0 0 0
SMALL
GASTEIGER

@<TRIPOS>ATOM
      1 C           7.1227   -1.6682   -3.6140 C.3     1  UNL11      -0.0167
      2 C           5.9863   -0.7161   -3.7273 C.2     1  UNL11       0.1045
      3 C           5.2812   -0.2401   -2.6414 C.2     1  UNL11      -0.0218
      4 C           4.2210    0.6503   -2.7662 C.2     1  UNL11       0.0751
      5 C           3.5076    1.1188   -1.5828 C.3     1  UNL11       0.0074
      6 C           2.0652    0.8085   -1.5398 C.ar    1  UNL11      -0.0426
      7 C           1.5215   -0.3018   -2.1436 C.ar    1  UNL11      -0.0564
      8 C           0.1618   -0.5797   -2.0855 C.ar    1  UNL11      -0.0351
      9 C          -0.7139    0.2544   -1.4128 C.ar    1  UNL11       0.1055
     10 S          -2.4357   -0.1100   -1.3511 S.O2    1  UNL11       0.0611
     11 O          -2.9043   -0.1277   -2.7931 O.2     1  UNL11      -0.1528
     12 O          -2.6710   -1.4898   -0.8154 O.2     1  UNL11      -0.1528
     13 N          -3.2648    1.0920   -0.4783 N.3     1  UNL11      -0.1738
     14 C          -2.9815    1.0481    0.9140 C.3     1  UNL11       0.0208
     15 C          -2.3123    2.3017    1.4321 C.3     1  UNL11      -0.0385
     16 C          -1.2593    2.8158    0.5032 C.3     1  UNL11      -0.0504
     17 C          -1.8094    3.0239   -0.8826 C.3     1  UNL11      -0.0359
     18 C          -3.1706    2.4085   -1.0187 C.3     1  UNL11       0.0291
     19 C          -3.6941    2.5358   -2.4195 C.3     1  UNL11      -0.0478
     20 C          -0.1704    1.3716   -0.8055 C.ar    1  UNL11      -0.0351
     21 C           1.1836    1.6488   -0.8627 C.ar    1  UNL11      -0.0564
     22 C           3.8640    1.0709   -4.0235 C.2     1  UNL11       0.4341
     23 O           2.9178    1.8782   -4.2546 O.2     1  UNL11      -0.2120
     24 N           4.5797    0.5817   -5.0692 N.am    1  UNL11      -0.0359
     25 N           5.5850   -0.2640   -4.9368 N.2     1  UNL11      -0.0085
     26 H           6.9488   -2.4014   -2.8184 H       1  UNL11       0.0294
     27 H           7.3244   -2.1124   -4.5991 H       1  UNL11       0.0294
     28 H           8.0017   -1.0560   -3.2848 H       1  UNL11       0.0294
     29 H           5.5928   -0.5950   -1.6668 H       1  UNL11       0.0643
     30 H           3.7023    2.2112   -1.4260 H       1  UNL11       0.0365
     31 H           3.9530    0.6284   -0.6666 H       1  UNL11       0.0365
     32 H           2.1985   -0.9636   -2.6809 H       1  UNL11       0.0621
     33 H          -0.2346   -1.4468   -2.5613 H       1  UNL11       0.0637
     34 H          -2.3979    0.1532    1.1962 H       1  UNL11       0.0444
     35 H          -3.9622    0.9726    1.4583 H       1  UNL11       0.0444
     36 H          -3.0984    3.0480    1.6429 H       1  UNL11       0.0278
     37 H          -1.8442    2.0258    2.4045 H       1  UNL11       0.0278
     38 H          -0.3811    2.1592    0.4960 H       1  UNL11       0.0266
     39 H          -0.8959    3.7890    0.9468 H       1  UNL11       0.0266
     40 H          -1.0998    2.7350   -1.6740 H       1  UNL11       0.0281
     41 H          -1.9557    4.1365   -1.0090 H       1  UNL11       0.0281
     42 H          -3.8546    3.0511   -0.3866 H       1  UNL11       0.0477
     43 H          -4.6487    1.9629   -2.4621 H       1  UNL11       0.0245
     44 H          -2.9847    2.2932   -3.2084 H       1  UNL11       0.0245
     45 H          -3.9913    3.6117   -2.5911 H       1  UNL11       0.0245
     46 H          -0.8655    2.0250   -0.2817 H       1  UNL11       0.0637
     47 H           1.5578    2.5371   -0.3697 H       1  UNL11       0.0621
     48 H           4.2916    0.9154   -6.0326 H       1  UNL11       0.4828
@<TRIPOS>BOND
     1     1     2    1
     2     1    26    1
     3     1    27    1
     4     1    28    1
     5     2     3    1
     6     3     4    2
     7     3    29    1
     8     4     5    1
     9     4    22    1
    10     5     6    1
    11     5    30    1
    12     5    31    1
    13     6     7   ar
    14     7     8   ar
    15     7    32    1
    16     8     9   ar
    17     8    33    1
    18     9    10    1
    19     9    20   ar
    20    10    11    2
    21    10    12    2
    22    10    13    1
    23    13    14    1
    24    14    15    1
    25    14    34    1
    26    14    35    1
    27    15    16    1
    28    15    36    1
    29    15    37    1
    30    16    17    1
    31    16    38    1
    32    16    39    1
    33    17    18    1
    34    17    40    1
    35    17    41    1
    36    18    19    1
    37    18    13    1
    38    18    42    1
    39    19    43    1
    40    19    44    1
    41    19    45    1
    42    20    21   ar
    43    20    46    1
    44    21     6   ar
    45    21    47    1
    46    22    23    2
    47    22    24   am
    48    24    25    1
    49    24    48    1
    50    25     2    2
@<TRIPOS>MOLECULE
*****
 48 50 0 0 0
SMALL
GASTEIGER

@<TRIPOS>ATOM
      1 C           7.4521    2.1066   -4.4858 C.3     1  UNL11      -0.0167
      2 C           6.0083    1.8030   -4.3009 C.2     1  UNL11       0.1045
      3 C           5.4243    1.6053   -3.0669 C.2     1  UNL11      -0.0218
      4 C           4.0720    1.3224   -2.9128 C.2     1  UNL11       0.0751
      5 C           3.5076    1.1188   -1.5828 C.3     1  UNL11       0.0074
      6 C           2.0652    0.8085   -1.5398 C.ar    1  UNL11      -0.0426
      7 C           1.5215   -0.3018   -2.1436 C.ar    1  UNL11      -0.0564
      8 C           0.1618   -0.5797   -2.0855 C.ar    1  UNL11      -0.0351
      9 C          -0.7139    0.2544   -1.4128 C.ar    1  UNL11       0.1055
     10 S          -2.4357   -0.1100   -1.3511 S.O2    1  UNL11       0.0611
     11 O          -2.5457   -1.4640   -0.6775 O.2     1  UNL11      -0.1528
     12 O          -3.1558    0.8605   -0.4647 O.2     1  UNL11      -0.1528
     13 N          -3.0829   -0.1810   -2.9227 N.3     1  UNL11      -0.1738
     14 C          -2.3154   -1.0033   -3.7919 C.3     1  UNL11       0.0208
     15 C          -3.0773   -2.1996   -4.3176 C.3     1  UNL11      -0.0385
     16 C          -3.9135   -2.8549   -3.2654 C.3     1  UNL11      -0.0504
     17 C          -4.8382   -1.8646   -2.6090 C.3     1  UNL11      -0.0359
     18 C          -4.4800   -0.4591   -2.9919 C.3     1  UNL11       0.0291
     19 C          -5.3411    0.5416   -2.2780 C.3     1  UNL11      -0.0478
     20 C          -0.1704    1.3716   -0.8055 C.ar    1  UNL11      -0.0351
     21 C           1.1836    1.6488   -0.8627 C.ar    1  UNL11      -0.0564
     22 C           3.2888    1.2372   -4.0373 C.2     1  UNL11       0.4341
     23 O           2.0490    0.9863   -4.0155 O.2     1  UNL11      -0.2120
     24 N           3.8972    1.4372   -5.2351 N.am    1  UNL11      -0.0359
     25 N           5.1832    1.7053   -5.3677 N.2     1  UNL11      -0.0085
     26 H           8.0688    1.5577   -3.7652 H       1  UNL11       0.0294
     27 H           7.7278    1.9357   -5.5362 H       1  UNL11       0.0294
     28 H           7.5704    3.1917   -4.2324 H       1  UNL11       0.0294
     29 H           6.0747    1.6806   -2.2043 H       1  UNL11       0.0643
     30 H           3.7660    1.9851   -0.9206 H       1  UNL11       0.0365
     31 H           4.0239    0.2393   -1.0948 H       1  UNL11       0.0365
     32 H           2.1985   -0.9636   -2.6809 H       1  UNL11       0.0621
     33 H          -0.2346   -1.4468   -2.5613 H       1  UNL11       0.0637
     34 H          -1.3614   -1.3226   -3.3348 H       1  UNL11       0.0444
     35 H          -2.0458   -0.3872   -4.6927 H       1  UNL11       0.0444
     36 H          -3.6677   -1.8730   -5.1917 H       1  UNL11       0.0278
     37 H          -2.3110   -2.9210   -4.6826 H       1  UNL11       0.0278
     38 H          -3.2895   -3.3757   -2.5294 H       1  UNL11       0.0266
     39 H          -4.4954   -3.6700   -3.7879 H       1  UNL11       0.0266
     40 H          -4.9413   -2.0270   -1.5245 H       1  UNL11       0.0281
     41 H          -5.8674   -2.0515   -3.0347 H       1  UNL11       0.0281
     42 H          -4.7596   -0.3656   -4.0843 H       1  UNL11       0.0477
     43 H          -4.9419    1.5508   -2.5298 H       1  UNL11       0.0245
     44 H          -5.4827    0.3632   -1.2138 H       1  UNL11       0.0245
     45 H          -6.3729    0.5132   -2.7361 H       1  UNL11       0.0245
     46 H          -0.8655    2.0250   -0.2817 H       1  UNL11       0.0637
     47 H           1.5578    2.5371   -0.3697 H       1  UNL11       0.0621
     48 H           3.2794    1.3677   -6.0931 H       1  UNL11       0.4828
@<TRIPOS>BOND
     1     1     2    1
     2     1    26    1
     3     1    27    1
     4     1    28    1
     5     2     3    1
     6     3     4    2
     7     3    29    1
     8     4     5    1
     9     4    22    1
    10     5     6    1
    11     5    30    1
    12     5    31    1
    13     6     7   ar
    14     7     8   ar
    15     7    32    1
    16     8     9   ar
    17     8    33    1
    18     9    10    1
    19     9    20   ar
    20    10    11    2
    21    10    12    2
    22    10    13    1
    23    13    14    1
    24    14    15    1
    25    14    34    1
    26    14    35    1
    27    15    16    1
    28    15    36    1
    29    15    37    1
    30    16    17    1
    31    16    38    1
    32    16    39    1
    33    17    18    1
    34    17    40    1
    35    17    41    1
    36    18    19    1
    37    18    13    1
    38    18    42    1
    39    19    43    1
    40    19    44    1
    41    19    45    1
    42    20    21   ar
    43    20    46    1
    44    21     6   ar
    45    21    47    1
    46    22    23    2
    47    22    24   am
    48    24    25    1
    49    24    48    1
    50    25     2    2
@<TRIPOS>MOLECULE
*****
 48 50 0 0 0
SMALL
GASTEIGER

@<TRIPOS>ATOM
      1 C           3.8519    3.7159    2.6714 C.3     1  UNL11      -0.0167
      2 C           4.0725    3.5682    1.2084 C.2     1  UNL11       0.1045
      3 C           3.7024    2.4488    0.4923 C.2     1  UNL11      -0.0218
      4 C           3.9164    2.3280   -0.8759 C.2     1  UNL11       0.0751
      5 C           3.5076    1.1188   -1.5828 C.3     1  UNL11       0.0074
      6 C           2.0652    0.8085   -1.5398 C.ar    1  UNL11      -0.0426
      7 C           1.5215   -0.3018   -2.1436 C.ar    1  UNL11      -0.0564
      8 C           0.1618   -0.5797   -2.0855 C.ar    1  UNL11      -0.0351
      9 C          -0.7139    0.2544   -1.4128 C.ar    1  UNL11       0.1055
     10 S          -2.4357   -0.1100   -1.3511 S.O2    1  UNL11       0.0611
     11 O          -3.0636    1.0064   -0.5395 O.2     1  UNL11      -0.1528
     12 O          -3.0476   -0.0324   -2.7170 O.2     1  UNL11      -0.1528
     13 N          -2.6972   -1.6088   -0.5900 N.3     1  UNL11      -0.1738
     14 C          -2.0045   -1.7208    0.6463 C.3     1  UNL11       0.0208
     15 C          -2.9216   -1.8932    1.8367 C.3     1  UNL11      -0.0385
     16 C          -4.1242   -1.0073    1.7676 C.3     1  UNL11      -0.0504
     17 C          -4.8686   -1.1988    0.4732 C.3     1  UNL11      -0.0359
     18 C          -4.0620   -2.0118   -0.4956 C.3     1  UNL11       0.0291
     19 C          -4.7574   -2.1386   -1.8195 C.3     1  UNL11      -0.0478
     20 C          -0.1704    1.3716   -0.8055 C.ar    1  UNL11      -0.0351
     21 C           1.1836    1.6488   -0.8627 C.ar    1  UNL11      -0.0564
     22 C           4.5211    3.3676   -1.5381 C.2     1  UNL11       0.4341
     23 O           4.7641    3.3664   -2.7797 O.2     1  UNL11      -0.2120
     24 N           4.8721    4.4535   -0.8015 N.am    1  UNL11      -0.0359
     25 N           4.6631    4.5556    0.4981 N.2     1  UNL11      -0.0085
     26 H           3.9992    2.7637    3.1935 H       1  UNL11       0.0294
     27 H           4.4742    4.5385    3.0517 H       1  UNL11       0.0294
     28 H           2.7675    3.9713    2.7921 H       1  UNL11       0.0294
     29 H           3.2285    1.6505    1.0500 H       1  UNL11       0.0643
     30 H           4.1296    0.2497   -1.2459 H       1  UNL11       0.0365
     31 H           3.7638    1.2289   -2.6785 H       1  UNL11       0.0365
     32 H           2.1985   -0.9636   -2.6809 H       1  UNL11       0.0621
     33 H          -0.2346   -1.4468   -2.5613 H       1  UNL11       0.0637
     34 H          -1.3062   -0.8810    0.8143 H       1  UNL11       0.0444
     35 H          -1.3767   -2.6521    0.6011 H       1  UNL11       0.0444
     36 H          -3.1823   -2.9632    1.9166 H       1  UNL11       0.0278
     37 H          -2.3188   -1.6281    2.7352 H       1  UNL11       0.0278
     38 H          -3.8534    0.0432    1.9274 H       1  UNL11       0.0266
     39 H          -4.7698   -1.2831    2.6527 H       1  UNL11       0.0266
     40 H          -5.2594   -0.2559    0.0591 H       1  UNL11       0.0281
     41 H          -5.7827   -1.8168    0.7140 H       1  UNL11       0.0281
     42 H          -4.0456   -3.0590   -0.0674 H       1  UNL11       0.0477
     43 H          -4.0509   -2.6556   -2.5086 H       1  UNL11       0.0245
     44 H          -5.1838   -1.2186   -2.2147 H       1  UNL11       0.0245
     45 H          -5.6232   -2.8536   -1.6989 H       1  UNL11       0.0245
     46 H          -0.8655    2.0250   -0.2817 H       1  UNL11       0.0637
     47 H           1.5578    2.5371   -0.3697 H       1  UNL11       0.0621
     48 H           5.3381    5.2468   -1.3271 H       1  UNL11       0.4828
@<TRIPOS>BOND
     1     1     2    1
     2     1    26    1
     3     1    27    1
     4     1    28    1
     5     2     3    1
     6     3     4    2
     7     3    29    1
     8     4     5    1
     9     4    22    1
    10     5     6    1
    11     5    30    1
    12     5    31    1
    13     6     7   ar
    14     7     8   ar
    15     7    32    1
    16     8     9   ar
    17     8    33    1
    18     9    10    1
    19     9    20   ar
    20    10    11    2
    21    10    12    2
    22    10    13    1
    23    13    14    1
    24    14    15    1
    25    14    34    1
    26    14    35    1
    27    15    16    1
    28    15    36    1
    29    15    37    1
    30    16    17    1
    31    16    38    1
    32    16    39    1
    33    17    18    1
    34    17    40    1
    35    17    41    1
    36    18    19    1
    37    18    13    1
    38    18    42    1
    39    19    43    1
    40    19    44    1
    41    19    45    1
    42    20    21   ar
    43    20    46    1
    44    21     6   ar
    45    21    47    1
    46    22    23    2
    47    22    24   am
    48    24    25    1
    49    24    48    1
    50    25     2    2
@<TRIPOS>MOLECULE
*****
 48 50 0 0 0
SMALL
GASTEIGER

@<TRIPOS>ATOM
      1 C           4.1478   -3.8291   -1.8479 C.3     1  UNL11      -0.0167
      2 C           4.6822   -2.4423   -1.8032 C.2     1  UNL11       0.1045
      3 C           3.8831   -1.3214   -1.7143 C.2     1  UNL11      -0.0218
      4 C           4.4003   -0.0318   -1.6735 C.2     1  UNL11       0.0751
      5 C           3.5076    1.1188   -1.5828 C.3     1  UNL11       0.0074
      6 C           2.0652    0.8085   -1.5398 C.ar    1  UNL11      -0.0426
      7 C           1.5215   -0.3018   -2.1436 C.ar    1  UNL11      -0.0564
      8 C           0.1618   -0.5797   -2.0855 C.ar    1  UNL11      -0.0351
      9 C          -0.7139    0.2544   -1.4128 C.ar    1  UNL11       0.1055
     10 S          -2.4357   -0.1100   -1.3511 S.O2    1  UNL11       0.0611
     11 O          -2.9043   -0.1277   -2.7931 O.2     1  UNL11      -0.1528
     12 O          -2.6710   -1.4898   -0.8154 O.2     1  UNL11      -0.1528
     13 N          -3.2648    1.0920   -0.4783 N.3     1  UNL11      -0.1738
     14 C          -2.9815    1.0481    0.9140 C.3     1  UNL11       0.0208
     15 C          -2.3123    2.3017    1.4321 C.3     1  UNL11      -0.0385
     16 C          -1.2593    2.8158    0.5032 C.3     1  UNL11      -0.0504
     17 C          -1.8094    3.0239   -0.8826 C.3     1  UNL11      -0.0359
     18 C          -3.1706    2.4085   -1.0187 C.3     1  UNL11       0.0291
     19 C          -3.6941    2.5358   -2.4195 C.3     1  UNL11      -0.0478
     20 C          -0.1704    1.3716   -0.8055 C.ar    1  UNL11      -0.0351
     21 C           1.1836    1.6488   -0.8627 C.ar    1  UNL11      -0.0564
     22 C           5.7629    0.1288   -1.7238 C.2     1  UNL11       0.4341
     23 O           6.3418    1.2533   -1.6930 O.2     1  UNL11      -0.2120
     24 N           6.5186   -0.9964   -1.8113 N.am    1  UNL11      -0.0359
     25 N           6.0145   -2.2161   -1.8493 N.2     1  UNL11      -0.0085
     26 H           3.2174   -3.8779   -2.4249 H       1  UNL11       0.0294
     27 H           4.9340   -4.5104   -2.2034 H       1  UNL11       0.0294
     28 H           3.8717   -4.0837   -0.7921 H       1  UNL11       0.0294
     29 H           2.8138   -1.4892   -1.6770 H       1  UNL11       0.0643
     30 H           3.7499    1.8559   -2.3913 H       1  UNL11       0.0365
     31 H           3.7278    1.6807   -0.6268 H       1  UNL11       0.0365
     32 H           2.1985   -0.9636   -2.6809 H       1  UNL11       0.0621
     33 H          -0.2346   -1.4468   -2.5613 H       1  UNL11       0.0637
     34 H          -2.3979    0.1532    1.1962 H       1  UNL11       0.0444
     35 H          -3.9622    0.9726    1.4583 H       1  UNL11       0.0444
     36 H          -3.0984    3.0480    1.6429 H       1  UNL11       0.0278
     37 H          -1.8442    2.0258    2.4045 H       1  UNL11       0.0278
     38 H          -0.3811    2.1592    0.4960 H       1  UNL11       0.0266
     39 H          -0.8959    3.7890    0.9468 H       1  UNL11       0.0266
     40 H          -1.0998    2.7350   -1.6740 H       1  UNL11       0.0281
     41 H          -1.9557    4.1365   -1.0090 H       1  UNL11       0.0281
     42 H          -3.8546    3.0511   -0.3866 H       1  UNL11       0.0477
     43 H          -4.6487    1.9629   -2.4621 H       1  UNL11       0.0245
     44 H          -2.9847    2.2932   -3.2084 H       1  UNL11       0.0245
     45 H          -3.9913    3.6117   -2.5911 H       1  UNL11       0.0245
     46 H          -0.8655    2.0250   -0.2817 H       1  UNL11       0.0637
     47 H           1.5578    2.5371   -0.3697 H       1  UNL11       0.0621
     48 H           7.5681   -0.8556   -1.8497 H       1  UNL11       0.4828
@<TRIPOS>BOND
     1     1     2    1
     2     1    26    1
     3     1    27    1
     4     1    28    1
     5     2     3    1
     6     3     4    2
     7     3    29    1
     8     4     5    1
     9     4    22    1
    10     5     6    1
    11     5    30    1
    12     5    31    1
    13     6     7   ar
    14     7     8   ar
    15     7    32    1
    16     8     9   ar
    17     8    33    1
    18     9    10    1
    19     9    20   ar
    20    10    11    2
    21    10    12    2
    22    10    13    1
    23    13    14    1
    24    14    15    1
    25    14    34    1
    26    14    35    1
    27    15    16    1
    28    15    36    1
    29    15    37    1
    30    16    17    1
    31    16    38    1
    32    16    39    1
    33    17    18    1
    34    17    40    1
    35    17    41    1
    36    18    19    1
    37    18    13    1
    38    18    42    1
    39    19    43    1
    40    19    44    1
    41    19    45    1
    42    20    21   ar
    43    20    46    1
    44    21     6   ar
    45    21    47    1
    46    22    23    2
    47    22    24   am
    48    24    25    1
    49    24    48    1
    50    25     2    2
@<TRIPOS>MOLECULE
*****
 48 50 0 0 0
SMALL
GASTEIGER

@<TRIPOS>ATOM
      1 C           8.0143   -0.3266   -3.1836 C.3     1  UNL11      -0.0167
      2 C           6.5430   -0.5131   -3.0770 C.2     1  UNL11       0.1045
      3 C           5.7125    0.3574   -2.4023 C.2     1  UNL11      -0.0218
      4 C           4.3384    0.1673   -2.3130 C.2     1  UNL11       0.0751
      5 C           3.5076    1.1188   -1.5828 C.3     1  UNL11       0.0074
      6 C           2.0652    0.8085   -1.5398 C.ar    1  UNL11      -0.0426
      7 C           1.5215   -0.3018   -2.1436 C.ar    1  UNL11      -0.0564
      8 C           0.1618   -0.5797   -2.0855 C.ar    1  UNL11      -0.0351
      9 C          -0.7139    0.2544   -1.4128 C.ar    1  UNL11       0.1055
     10 S          -2.4357   -0.1100   -1.3511 S.O2    1  UNL11       0.0611
     11 O          -2.5457   -1.4640   -0.6775 O.2     1  UNL11      -0.1528
     12 O          -3.1558    0.8605   -0.4647 O.2     1  UNL11      -0.1528
     13 N          -3.0829   -0.1810   -2.9227 N.3     1  UNL11      -0.1738
     14 C          -3.5675    1.0782   -3.3703 C.3     1  UNL11       0.0208
     15 C          -2.8400    1.6053   -4.5872 C.3     1  UNL11      -0.0385
     16 C          -1.3618    1.3940   -4.5082 C.3     1  UNL11      -0.0504
     17 C          -1.0306   -0.0533   -4.2589 C.3     1  UNL11      -0.0359
     18 C          -2.2596   -0.8301   -3.8896 C.3     1  UNL11       0.0291
     19 C          -1.9295   -2.2558   -3.5567 C.3     1  UNL11      -0.0478
     20 C          -0.1704    1.3716   -0.8055 C.ar    1  UNL11      -0.0351
     21 C           1.1836    1.6488   -0.8627 C.ar    1  UNL11      -0.0564
     22 C           3.7890   -0.9332   -2.9230 C.2     1  UNL11       0.4341
     23 O           2.5534   -1.2048   -2.9070 O.2     1  UNL11      -0.2120
     24 N           4.6363   -1.7687   -3.5781 N.am    1  UNL11      -0.0359
     25 N           5.9403   -1.5765   -3.6552 N.2     1  UNL11      -0.0085
     26 H           8.4307    0.0848   -2.2571 H       1  UNL11       0.0294
     27 H           8.4780   -1.2700   -3.5053 H       1  UNL11       0.0294
     28 H           8.1661    0.4595   -3.9677 H       1  UNL11       0.0294
     29 H           6.1833    1.2132   -1.9344 H       1  UNL11       0.0643
     30 H           3.6979    2.1582   -1.9559 H       1  UNL11       0.0365
     31 H           3.8455    1.1503   -0.5043 H       1  UNL11       0.0365
     32 H           2.1985   -0.9636   -2.6809 H       1  UNL11       0.0621
     33 H          -0.2346   -1.4468   -2.5613 H       1  UNL11       0.0637
     34 H          -3.5749    1.8357   -2.5659 H       1  UNL11       0.0444
     35 H          -4.6375    0.9384   -3.6852 H       1  UNL11       0.0444
     36 H          -3.2911    1.1435   -5.4830 H       1  UNL11       0.0278
     37 H          -3.0551    2.6974   -4.6300 H       1  UNL11       0.0278
     38 H          -0.9066    2.0490   -3.7558 H       1  UNL11       0.0266
     39 H          -0.9405    1.7431   -5.4965 H       1  UNL11       0.0266
     40 H          -0.1844   -0.1869   -3.5666 H       1  UNL11       0.0281
     41 H          -0.6767   -0.4785   -5.2435 H       1  UNL11       0.0281
     42 H          -2.8773   -0.8816   -4.8362 H       1  UNL11       0.0477
     43 H          -2.8692   -2.7290   -3.1900 H       1  UNL11       0.0245
     44 H          -1.0678   -2.3977   -2.9073 H       1  UNL11       0.0245
     45 H          -1.6854   -2.7974   -4.5171 H       1  UNL11       0.0245
     46 H          -0.8655    2.0250   -0.2817 H       1  UNL11       0.0637
     47 H           1.5578    2.5371   -0.3697 H       1  UNL11       0.0621
     48 H           4.1969   -2.6134   -4.0430 H       1  UNL11       0.4828
@<TRIPOS>BOND
     1     1     2    1
     2     1    26    1
     3     1    27    1
     4     1    28    1
     5     2     3    1
     6     3     4    2
     7     3    29    1
     8     4     5    1
     9     4    22    1
    10     5     6    1
    11     5    30    1
    12     5    31    1
    13     6     7   ar
    14     7     8   ar
    15     7    32    1
    16     8     9   ar
    17     8    33    1
    18     9    10    1
    19     9    20   ar
    20    10    11    2
    21    10    12    2
    22    10    13    1
    23    13    14    1
    24    14    15    1
    25    14    34    1
    26    14    35    1
    27    15    16    1
    28    15    36    1
    29    15    37    1
    30    16    17    1
    31    16    38    1
    32    16    39    1
    33    17    18    1
    34    17    40    1
    35    17    41    1
    36    18    19    1
    37    18    13    1
    38    18    42    1
    39    19    43    1
    40    19    44    1
    41    19    45    1
    42    20    21   ar
    43    20    46    1
    44    21     6   ar
    45    21    47    1
    46    22    23    2
    47    22    24   am
    48    24    25    1
    49    24    48    1
    50    25     2    2
@<TRIPOS>MOLECULE
*****
 48 50 0 0 0
SMALL
GASTEIGER

@<TRIPOS>ATOM
      1 C           5.6063    5.6523   -1.6552 C.3     1  UNL11      -0.0167
      2 C           4.9405    4.5311   -0.9406 C.2     1  UNL11       0.1045
      3 C           4.5376    3.3664   -1.5601 C.2     1  UNL11      -0.0218
      4 C           3.9164    2.3280   -0.8759 C.2     1  UNL11       0.0751
      5 C           3.5076    1.1188   -1.5828 C.3     1  UNL11       0.0074
      6 C           2.0652    0.8085   -1.5398 C.ar    1  UNL11      -0.0426
      7 C           1.5215   -0.3018   -2.1436 C.ar    1  UNL11      -0.0564
      8 C           0.1618   -0.5797   -2.0855 C.ar    1  UNL11      -0.0351
      9 C          -0.7139    0.2544   -1.4128 C.ar    1  UNL11       0.1055
     10 S          -2.4357   -0.1100   -1.3511 S.O2    1  UNL11       0.0611
     11 O          -2.6147   -1.3870   -2.1489 O.2     1  UNL11      -0.1528
     12 O          -2.8653   -0.4255    0.0497 O.2     1  UNL11      -0.1528
     13 N          -3.3340    1.1525   -2.0532 N.3     1  UNL11      -0.1738
     14 C          -3.5456    0.9622   -3.4460 C.3     1  UNL11       0.0208
     15 C          -5.0049    0.8279   -3.8204 C.3     1  UNL11      -0.0385
     16 C          -5.7683   -0.0240   -2.8573 C.3     1  UNL11      -0.0504
     17 C          -5.6110    0.4744   -1.4455 C.3     1  UNL11      -0.0359
     18 C          -4.5274    1.5081   -1.3579 C.3     1  UNL11       0.0291
     19 C          -4.3036    1.9514    0.0583 C.3     1  UNL11      -0.0478
     20 C          -0.1704    1.3716   -0.8055 C.ar    1  UNL11      -0.0351
     21 C           1.1836    1.6488   -0.8627 C.ar    1  UNL11      -0.0564
     22 C           3.6967    2.4712    0.4718 C.2     1  UNL11       0.4341
     23 O           3.1417    1.5924    1.1930 O.2     1  UNL11      -0.2120
     24 N           4.1061    3.6309    1.0485 N.am    1  UNL11      -0.0359
     25 N           4.6952    4.6099    0.3868 N.2     1  UNL11      -0.0085
     26 H           5.1927    5.7833   -2.6615 H       1  UNL11       0.0294
     27 H           5.5659    6.5563   -1.0310 H       1  UNL11       0.0294
     28 H           6.6714    5.3340   -1.7966 H       1  UNL11       0.0294
     29 H           4.7282    3.2911   -2.6236 H       1  UNL11       0.0643
     30 H           4.1296    0.2497   -1.2459 H       1  UNL11       0.0365
     31 H           3.7638    1.2289   -2.6785 H       1  UNL11       0.0365
     32 H           2.1985   -0.9636   -2.6809 H       1  UNL11       0.0621
     33 H          -0.2346   -1.4468   -2.5613 H       1  UNL11       0.0637
     34 H          -2.9635    0.1130   -3.8473 H       1  UNL11       0.0444
     35 H          -3.1731    1.8813   -3.9752 H       1  UNL11       0.0444
     36 H          -5.4276    1.8429   -3.9222 H       1  UNL11       0.0278
     37 H          -5.0255    0.3546   -4.8286 H       1  UNL11       0.0278
     38 H          -5.4839   -1.0790   -2.9484 H       1  UNL11       0.0266
     39 H          -6.8483    0.0195   -3.1859 H       1  UNL11       0.0266
     40 H          -5.5210   -0.3406   -0.7100 H       1  UNL11       0.0281
     41 H          -6.5716    1.0060   -1.1810 H       1  UNL11       0.0281
     42 H          -4.9367    2.4174   -1.8925 H       1  UNL11       0.0477
     43 H          -3.4188    2.6284    0.0501 H       1  UNL11       0.0245
     44 H          -4.2565    1.1536    0.7970 H       1  UNL11       0.0245
     45 H          -5.1700    2.6071    0.3664 H       1  UNL11       0.0245
     46 H          -0.8655    2.0250   -0.2817 H       1  UNL11       0.0637
     47 H           1.5578    2.5371   -0.3697 H       1  UNL11       0.0621
     48 H           3.9290    3.7262    2.0888 H       1  UNL11       0.4828
@<TRIPOS>BOND
     1     1     2    1
     2     1    26    1
     3     1    27    1
     4     1    28    1
     5     2     3    1
     6     3     4    2
     7     3    29    1
     8     4     5    1
     9     4    22    1
    10     5     6    1
    11     5    30    1
    12     5    31    1
    13     6     7   ar
    14     7     8   ar
    15     7    32    1
    16     8     9   ar
    17     8    33    1
    18     9    10    1
    19     9    20   ar
    20    10    11    2
    21    10    12    2
    22    10    13    1
    23    13    14    1
    24    14    15    1
    25    14    34    1
    26    14    35    1
    27    15    16    1
    28    15    36    1
    29    15    37    1
    30    16    17    1
    31    16    38    1
    32    16    39    1
    33    17    18    1
    34    17    40    1
    35    17    41    1
    36    18    19    1
    37    18    13    1
    38    18    42    1
    39    19    43    1
    40    19    44    1
    41    19    45    1
    42    20    21   ar
    43    20    46    1
    44    21     6   ar
    45    21    47    1
    46    22    23    2
    47    22    24   am
    48    24    25    1
    49    24    48    1
    50    25     2    2
@<TRIPOS>MOLECULE
*****
 48 50 0 0 0
SMALL
GASTEIGER

@<TRIPOS>ATOM
      1 C           2.9422    2.5788   -6.3274 C.3     1  UNL11      -0.0167
      2 C           3.7690    2.0408   -5.2148 C.2     1  UNL11       0.1045
      3 C           3.2842    1.8265   -3.9412 C.2     1  UNL11      -0.0218
      4 C           4.0720    1.3224   -2.9128 C.2     1  UNL11       0.0751
      5 C           3.5076    1.1188   -1.5828 C.3     1  UNL11       0.0074
      6 C           2.0652    0.8085   -1.5398 C.ar    1  UNL11      -0.0426
      7 C           1.5215   -0.3018   -2.1436 C.ar    1  UNL11      -0.0564
      8 C           0.1618   -0.5797   -2.0855 C.ar    1  UNL11      -0.0351
      9 C          -0.7139    0.2544   -1.4128 C.ar    1  UNL11       0.1055
     10 S          -2.4357   -0.1100   -1.3511 S.O2    1  UNL11       0.0611
     11 O          -2.9043   -0.1277   -2.7931 O.2     1  UNL11      -0.1528
     12 O          -2.6710   -1.4898   -0.8154 O.2     1  UNL11      -0.1528
     13 N          -3.2648    1.0920   -0.4783 N.3     1  UNL11      -0.1738
     14 C          -2.9335    2.4054   -0.9096 C.3     1  UNL11       0.0208
     15 C          -4.1116    3.1695   -1.4720 C.3     1  UNL11      -0.0385
     16 C          -4.9768    2.3242   -2.3511 C.3     1  UNL11      -0.0504
     17 C          -5.4260    1.0772   -1.6371 C.3     1  UNL11      -0.0359
     18 C          -4.6712    0.8909   -0.3541 C.3     1  UNL11       0.0291
     19 C          -5.0501   -0.3926    0.3252 C.3     1  UNL11      -0.0478
     20 C          -0.1704    1.3716   -0.8055 C.ar    1  UNL11      -0.0351
     21 C           1.1836    1.6488   -0.8627 C.ar    1  UNL11      -0.0564
     22 C           5.3860    1.0269   -3.1795 C.2     1  UNL11       0.4341
     23 O           6.1926    0.5638   -2.3218 O.2     1  UNL11      -0.2120
     24 N           5.8292    1.2506   -4.4438 N.am    1  UNL11      -0.0359
     25 N           5.0702    1.7301   -5.4119 N.2     1  UNL11      -0.0085
     26 H           2.2369    3.3365   -5.9677 H       1  UNL11       0.0294
     27 H           3.6018    2.9255   -7.1356 H       1  UNL11       0.0294
     28 H           2.3184    1.7200   -6.6865 H       1  UNL11       0.0294
     29 H           2.2433    2.0718   -3.7704 H       1  UNL11       0.0643
     30 H           3.7660    1.9851   -0.9206 H       1  UNL11       0.0365
     31 H           4.0239    0.2393   -1.0948 H       1  UNL11       0.0365
     32 H           2.1985   -0.9636   -2.6809 H       1  UNL11       0.0621
     33 H          -0.2346   -1.4468   -2.5613 H       1  UNL11       0.0637
     34 H          -2.0908    2.4130   -1.6242 H       1  UNL11       0.0444
     35 H          -2.5912    2.9831   -0.0081 H       1  UNL11       0.0444
     36 H          -4.6657    3.6155   -0.6274 H       1  UNL11       0.0278
     37 H          -3.6834    4.0062   -2.0698 H       1  UNL11       0.0278
     38 H          -4.4739    2.0904   -3.2969 H       1  UNL11       0.0266
     39 H          -5.8592    2.9686   -2.6379 H       1  UNL11       0.0266
     40 H          -5.4378    0.1897   -2.2894 H       1  UNL11       0.0281
     41 H          -6.5040    1.2426   -1.3439 H       1  UNL11       0.0281
     42 H          -5.0407    1.7107    0.3327 H       1  UNL11       0.0477
     43 H          -4.3726   -0.5074    1.2022 H       1  UNL11       0.0245
     44 H          -5.1058   -1.2661   -0.3214 H       1  UNL11       0.0245
     45 H          -6.0818   -0.2692    0.7677 H       1  UNL11       0.0245
     46 H          -0.8655    2.0250   -0.2817 H       1  UNL11       0.0637
     47 H           1.5578    2.5371   -0.3697 H       1  UNL11       0.0621
     48 H           6.8454    1.0180   -4.6333 H       1  UNL11       0.4828
@<TRIPOS>BOND
     1     1     2    1
     2     1    26    1
     3     1    27    1
     4     1    28    1
     5     2     3    1
     6     3     4    2
     7     3    29    1
     8     4     5    1
     9     4    22    1
    10     5     6    1
    11     5    30    1
    12     5    31    1
    13     6     7   ar
    14     7     8   ar
    15     7    32    1
    16     8     9   ar
    17     8    33    1
    18     9    10    1
    19     9    20   ar
    20    10    11    2
    21    10    12    2
    22    10    13    1
    23    13    14    1
    24    14    15    1
    25    14    34    1
    26    14    35    1
    27    15    16    1
    28    15    36    1
    29    15    37    1
    30    16    17    1
    31    16    38    1
    32    16    39    1
    33    17    18    1
    34    17    40    1
    35    17    41    1
    36    18    19    1
    37    18    13    1
    38    18    42    1
    39    19    43    1
    40    19    44    1
    41    19    45    1
    42    20    21   ar
    43    20    46    1
    44    21     6   ar
    45    21    47    1
    46    22    23    2
    47    22    24   am
    48    24    25    1
    49    24    48    1
    50    25     2    2
@<TRIPOS>MOLECULE
*****
 48 50 0 0 0
SMALL
GASTEIGER

@<TRIPOS>ATOM
      1 C           2.9422    2.5788   -6.3274 C.3     1  UNL11      -0.0167
      2 C           3.7690    2.0408   -5.2148 C.2     1  UNL11       0.1045
      3 C           3.2842    1.8265   -3.9412 C.2     1  UNL11      -0.0218
      4 C           4.0720    1.3224   -2.9128 C.2     1  UNL11       0.0751
      5 C           3.5076    1.1188   -1.5828 C.3     1  UNL11       0.0074
      6 C           2.0652    0.8085   -1.5398 C.ar    1  UNL11      -0.0426
      7 C           1.5215   -0.3018   -2.1436 C.ar    1  UNL11      -0.0564
      8 C           0.1618   -0.5797   -2.0855 C.ar    1  UNL11      -0.0351
      9 C          -0.7139    0.2544   -1.4128 C.ar    1  UNL11       0.1055
     10 S          -2.4357   -0.1100   -1.3511 S.O2    1  UNL11       0.0611
     11 O          -2.5402   -1.6199   -1.4433 O.2     1  UNL11      -0.1528
     12 O          -3.0153    0.2714   -0.0227 O.2     1  UNL11      -0.1528
     13 N          -3.2423    0.6161   -2.6611 N.3     1  UNL11      -0.1738
     14 C          -2.6068    0.3544   -3.9055 C.3     1  UNL11       0.0208
     15 C          -3.4737   -0.4204   -4.8731 C.3     1  UNL11      -0.0385
     16 C          -4.2284   -1.5268   -4.2080 C.3     1  UNL11      -0.0504
     17 C          -5.0337   -1.0142   -3.0439 C.3     1  UNL11      -0.0359
     18 C          -4.6507    0.3958   -2.7044 C.3     1  UNL11       0.0291
     19 C          -5.3865    0.8890   -1.4929 C.3     1  UNL11      -0.0478
     20 C          -0.1704    1.3716   -0.8055 C.ar    1  UNL11      -0.0351
     21 C           1.1836    1.6488   -0.8627 C.ar    1  UNL11      -0.0564
     22 C           5.3860    1.0269   -3.1795 C.2     1  UNL11       0.4341
     23 O           6.1926    0.5638   -2.3218 O.2     1  UNL11      -0.2120
     24 N           5.8292    1.2506   -4.4438 N.am    1  UNL11      -0.0359
     25 N           5.0702    1.7301   -5.4119 N.2     1  UNL11      -0.0085
     26 H           2.2369    3.3365   -5.9677 H       1  UNL11       0.0294
     27 H           3.6018    2.9255   -7.1356 H       1  UNL11       0.0294
     28 H           2.3184    1.7200   -6.6865 H       1  UNL11       0.0294
     29 H           2.2433    2.0718   -3.7704 H       1  UNL11       0.0643
     30 H           3.7660    1.9851   -0.9206 H       1  UNL11       0.0365
     31 H           4.0239    0.2393   -1.0948 H       1  UNL11       0.0365
     32 H           2.1985   -0.9636   -2.6809 H       1  UNL11       0.0621
     33 H          -0.2346   -1.4468   -2.5613 H       1  UNL11       0.0637
     34 H          -1.6273   -0.1418   -3.7811 H       1  UNL11       0.0444
     35 H          -2.4016    1.3441   -4.3973 H       1  UNL11       0.0444
     36 H          -4.1341    0.2968   -5.3916 H       1  UNL11       0.0278
     37 H          -2.7834   -0.8499   -5.6345 H       1  UNL11       0.0278
     38 H          -3.5579   -2.3413   -3.9092 H       1  UNL11       0.0266
     39 H          -4.8982   -1.9722   -5.0011 H       1  UNL11       0.0266
     40 H          -5.0334   -1.7037   -2.1849 H       1  UNL11       0.0281
     41 H          -6.1086   -0.9715   -3.3878 H       1  UNL11       0.0281
     42 H          -5.0353    1.0256   -3.5621 H       1  UNL11       0.0477
     43 H          -4.9679    1.8913   -1.2451 H       1  UNL11       0.0245
     44 H          -5.4272    0.1955   -0.6550 H       1  UNL11       0.0245
     45 H          -6.4598    1.0848   -1.7844 H       1  UNL11       0.0245
     46 H          -0.8655    2.0250   -0.2817 H       1  UNL11       0.0637
     47 H           1.5578    2.5371   -0.3697 H       1  UNL11       0.0621
     48 H           6.8454    1.0180   -4.6333 H       1  UNL11       0.4828
@<TRIPOS>BOND
     1     1     2    1
     2     1    26    1
     3     1    27    1
     4     1    28    1
     5     2     3    1
     6     3     4    2
     7     3    29    1
     8     4     5    1
     9     4    22    1
    10     5     6    1
    11     5    30    1
    12     5    31    1
    13     6     7   ar
    14     7     8   ar
    15     7    32    1
    16     8     9   ar
    17     8    33    1
    18     9    10    1
    19     9    20   ar
    20    10    11    2
    21    10    12    2
    22    10    13    1
    23    13    14    1
    24    14    15    1
    25    14    34    1
    26    14    35    1
    27    15    16    1
    28    15    36    1
    29    15    37    1
    30    16    17    1
    31    16    38    1
    32    16    39    1
    33    17    18    1
    34    17    40    1
    35    17    41    1
    36    18    19    1
    37    18    13    1
    38    18    42    1
    39    19    43    1
    40    19    44    1
    41    19    45    1
    42    20    21   ar
    43    20    46    1
    44    21     6   ar
    45    21    47    1
    46    22    23    2
    47    22    24   am
    48    24    25    1
    49    24    48    1
    50    25     2    2
@<TRIPOS>MOLECULE
*****
 48 50 0 0 0
SMALL
GASTEIGER

@<TRIPOS>ATOM
      1 C           3.9278    1.8358   -6.5094 C.3     1  UNL11      -0.0167
      2 C           4.1333    2.2714   -5.1027 C.2     1  UNL11       0.1045
      3 C           3.7434    1.5249   -4.0102 C.2     1  UNL11      -0.0218
      4 C           3.9437    1.9480   -2.7014 C.2     1  UNL11       0.0751
      5 C           3.5076    1.1188   -1.5828 C.3     1  UNL11       0.0074
      6 C           2.0652    0.8085   -1.5398 C.ar    1  UNL11      -0.0426
      7 C           1.5215   -0.3018   -2.1436 C.ar    1  UNL11      -0.0564
      8 C           0.1618   -0.5797   -2.0855 C.ar    1  UNL11      -0.0351
      9 C          -0.7139    0.2544   -1.4128 C.ar    1  UNL11       0.1055
     10 S          -2.4357   -0.1100   -1.3511 S.O2    1  UNL11       0.0611
     11 O          -3.1365    1.2307   -1.2480 O.2     1  UNL11      -0.1528
     12 O          -2.8974   -0.7282   -2.6359 O.2     1  UNL11      -0.1528
     13 N          -2.7907   -1.0651    0.0112 N.3     1  UNL11      -0.1738
     14 C          -2.6761   -0.3414    1.2293 C.3     1  UNL11       0.0208
     15 C          -3.9776   -0.2384    1.9932 C.3     1  UNL11      -0.0385
     16 C          -5.1454    0.0405    1.1019 C.3     1  UNL11      -0.0504
     17 C          -5.2413   -0.9755   -0.0049 C.3     1  UNL11      -0.0359
     18 C          -4.0004   -1.8157   -0.0723 C.3     1  UNL11       0.0291
     19 C          -4.0486   -2.7760   -1.2247 C.3     1  UNL11      -0.0478
     20 C          -0.1704    1.3716   -0.8055 C.ar    1  UNL11      -0.0351
     21 C           1.1836    1.6488   -0.8627 C.ar    1  UNL11      -0.0564
     22 C           4.5553    3.1592   -2.4914 C.2     1  UNL11       0.4341
     23 O           4.7884    3.6419   -1.3455 O.2     1  UNL11      -0.2120
     24 N           4.9256    3.8672   -3.5898 N.am    1  UNL11      -0.0359
     25 N           4.7292    3.4537   -4.8283 N.2     1  UNL11      -0.0085
     26 H           2.9745    1.3082   -6.6266 H       1  UNL11       0.0294
     27 H           4.0496    2.6992   -7.1788 H       1  UNL11       0.0294
     28 H           4.7284    1.0789   -6.7142 H       1  UNL11       0.0294
     29 H           3.2645    0.5757   -4.2168 H       1  UNL11       0.0643
     30 H           3.8666    1.5593   -0.6170 H       1  UNL11       0.0365
     31 H           4.0335    0.1195   -1.6387 H       1  UNL11       0.0365
     32 H           2.1985   -0.9636   -2.6809 H       1  UNL11       0.0621
     33 H          -0.2346   -1.4468   -2.5613 H       1  UNL11       0.0637
     34 H          -2.2332    0.6603    1.0830 H       1  UNL11       0.0444
     35 H          -1.9695   -0.9072    1.8958 H       1  UNL11       0.0444
     36 H          -4.1019   -1.1624    2.5849 H       1  UNL11       0.0278
     37 H          -3.8516    0.6038    2.7111 H       1  UNL11       0.0278
     38 H          -5.1106    1.0640    0.7101 H       1  UNL11       0.0266
     39 H          -6.0608    0.0091    1.7632 H       1  UNL11       0.0266
     40 H          -5.5432   -0.5341   -0.9678 H       1  UNL11       0.0281
     41 H          -6.0799   -1.6789    0.2733 H       1  UNL11       0.0281
     42 H          -4.0263   -2.4634    0.8551 H       1  UNL11       0.0477
     43 H          -3.0552   -3.2783   -1.2698 H       1  UNL11       0.0245
     44 H          -4.3873   -2.3565   -2.1701 H       1  UNL11       0.0245
     45 H          -4.7803   -3.5982   -0.9716 H       1  UNL11       0.0245
     46 H          -0.8655    2.0250   -0.2817 H       1  UNL11       0.0637
     47 H           1.5578    2.5371   -0.3697 H       1  UNL11       0.0621
     48 H           5.3957    4.7998   -3.4110 H       1  UNL11       0.4828
@<TRIPOS>BOND
     1     1     2    1
     2     1    26    1
     3     1    27    1
     4     1    28    1
     5     2     3    1
     6     3     4    2
     7     3    29    1
     8     4     5    1
     9     4    22    1
    10     5     6    1
    11     5    30    1
    12     5    31    1
    13     6     7   ar
    14     7     8   ar
    15     7    32    1
    16     8     9   ar
    17     8    33    1
    18     9    10    1
    19     9    20   ar
    20    10    11    2
    21    10    12    2
    22    10    13    1
    23    13    14    1
    24    14    15    1
    25    14    34    1
    26    14    35    1
    27    15    16    1
    28    15    36    1
    29    15    37    1
    30    16    17    1
    31    16    38    1
    32    16    39    1
    33    17    18    1
    34    17    40    1
    35    17    41    1
    36    18    19    1
    37    18    13    1
    38    18    42    1
    39    19    43    1
    40    19    44    1
    41    19    45    1
    42    20    21   ar
    43    20    46    1
    44    21     6   ar
    45    21    47    1
    46    22    23    2
    47    22    24   am
    48    24    25    1
    49    24    48    1
    50    25     2    2
@<TRIPOS>MOLECULE
*****
 48 50 0 0 0
SMALL
GASTEIGER

@<TRIPOS>ATOM
      1 C           4.8802   -1.0601    2.6986 C.3     1  UNL11      -0.0167
      2 C           4.8333    0.1116    1.7843 C.2     1  UNL11       0.1045
      3 C           4.2113    0.0917    0.5533 C.2     1  UNL11      -0.0218
      4 C           4.1772    1.1972   -0.2888 C.2     1  UNL11       0.0751
      5 C           3.5076    1.1188   -1.5828 C.3     1  UNL11       0.0074
      6 C           2.0652    0.8085   -1.5398 C.ar    1  UNL11      -0.0426
      7 C           1.5215   -0.3018   -2.1436 C.ar    1  UNL11      -0.0564
      8 C           0.1618   -0.5797   -2.0855 C.ar    1  UNL11      -0.0351
      9 C          -0.7139    0.2544   -1.4128 C.ar    1  UNL11       0.1055
     10 S          -2.4357   -0.1100   -1.3511 S.O2    1  UNL11       0.0611
     11 O          -3.0636    1.0064   -0.5395 O.2     1  UNL11      -0.1528
     12 O          -3.0476   -0.0324   -2.7170 O.2     1  UNL11      -0.1528
     13 N          -2.6972   -1.6088   -0.5900 N.3     1  UNL11      -0.1738
     14 C          -1.8733   -2.6397   -1.1183 C.3     1  UNL11       0.0208
     15 C          -0.9188   -3.2275   -0.1028 C.3     1  UNL11      -0.0385
     16 C          -0.2917   -2.1845    0.7661 C.3     1  UNL11      -0.0504
     17 C          -1.3367   -1.3287    1.4309 C.3     1  UNL11      -0.0359
     18 C          -2.6915   -1.5748    0.8357 C.3     1  UNL11       0.0291
     19 C          -3.7272   -0.6671    1.4322 C.3     1  UNL11      -0.0478
     20 C          -0.1704    1.3716   -0.8055 C.ar    1  UNL11      -0.0351
     21 C           1.1836    1.6488   -0.8627 C.ar    1  UNL11      -0.0564
     22 C           4.7886    2.3546    0.1254 C.2     1  UNL11       0.4341
     23 O           4.8189    3.4192   -0.5574 O.2     1  UNL11      -0.2120
     24 N           5.3912    2.3380    1.3427 N.am    1  UNL11      -0.0359
     25 N           5.4164    1.2807    2.1331 N.2     1  UNL11      -0.0085
     26 H           4.9917   -1.9960    2.1396 H       1  UNL11       0.0294
     27 H           5.6555   -0.8959    3.4605 H       1  UNL11       0.0294
     28 H           3.8718   -1.1077    3.1852 H       1  UNL11       0.0294
     29 H           3.7406   -0.8393    0.2621 H       1  UNL11       0.0643
     30 H           4.0629    0.4191   -2.2594 H       1  UNL11       0.0365
     31 H           3.5892    2.1206   -2.1005 H       1  UNL11       0.0365
     32 H           2.1985   -0.9636   -2.6809 H       1  UNL11       0.0621
     33 H          -0.2346   -1.4468   -2.5613 H       1  UNL11       0.0637
     34 H          -1.3260   -2.3183   -2.0229 H       1  UNL11       0.0444
     35 H          -2.5454   -3.4828   -1.4362 H       1  UNL11       0.0444
     36 H          -1.4629   -3.9952    0.4750 H       1  UNL11       0.0278
     37 H          -0.1253   -3.7481   -0.6860 H       1  UNL11       0.0278
     38 H           0.4290   -1.5795    0.2032 H       1  UNL11       0.0266
     39 H           0.3250   -2.7413    1.5314 H       1  UNL11       0.0266
     40 H          -1.0509   -0.2663    1.4846 H       1  UNL11       0.0281
     41 H          -1.4005   -1.6719    2.5050 H       1  UNL11       0.0281
     42 H          -2.9812   -2.6161    1.1704 H       1  UNL11       0.0477
     43 H          -4.6709   -0.8347    0.8642 H       1  UNL11       0.0245
     44 H          -3.4357    0.3770    1.5280 H       1  UNL11       0.0245
     45 H          -3.9503   -1.0232    2.4804 H       1  UNL11       0.0245
     46 H          -0.8655    2.0250   -0.2817 H       1  UNL11       0.0637
     47 H           1.5578    2.5371   -0.3697 H       1  UNL11       0.0621
     48 H           5.8588    3.2385    1.6476 H       1  UNL11       0.4828
@<TRIPOS>BOND
     1     1     2    1
     2     1    26    1
     3     1    27    1
     4     1    28    1
     5     2     3    1
     6     3     4    2
     7     3    29    1
     8     4     5    1
     9     4    22    1
    10     5     6    1
    11     5    30    1
    12     5    31    1
    13     6     7   ar
    14     7     8   ar
    15     7    32    1
    16     8     9   ar
    17     8    33    1
    18     9    10    1
    19     9    20   ar
    20    10    11    2
    21    10    12    2
    22    10    13    1
    23    13    14    1
    24    14    15    1
    25    14    34    1
    26    14    35    1
    27    15    16    1
    28    15    36    1
    29    15    37    1
    30    16    17    1
    31    16    38    1
    32    16    39    1
    33    17    18    1
    34    17    40    1
    35    17    41    1
    36    18    19    1
    37    18    13    1
    38    18    42    1
    39    19    43    1
    40    19    44    1
    41    19    45    1
    42    20    21   ar
    43    20    46    1
    44    21     6   ar
    45    21    47    1
    46    22    23    2
    47    22    24   am
    48    24    25    1
    49    24    48    1
    50    25     2    2
@<TRIPOS>MOLECULE
*****
 48 50 0 0 0
SMALL
GASTEIGER

@<TRIPOS>ATOM
      1 C           7.4521    2.1066   -4.4858 C.3     1  UNL11      -0.0167
      2 C           6.0083    1.8030   -4.3009 C.2     1  UNL11       0.1045
      3 C           5.4243    1.6053   -3.0669 C.2     1  UNL11      -0.0218
      4 C           4.0720    1.3224   -2.9128 C.2     1  UNL11       0.0751
      5 C           3.5076    1.1188   -1.5828 C.3     1  UNL11       0.0074
      6 C           2.0652    0.8085   -1.5398 C.ar    1  UNL11      -0.0426
      7 C           1.5215   -0.3018   -2.1436 C.ar    1  UNL11      -0.0564
      8 C           0.1618   -0.5797   -2.0855 C.ar    1  UNL11      -0.0351
      9 C          -0.7139    0.2544   -1.4128 C.ar    1  UNL11       0.1055
     10 S          -2.4357   -0.1100   -1.3511 S.O2    1  UNL11       0.0611
     11 O          -2.9043   -0.1277   -2.7931 O.2     1  UNL11      -0.1528
     12 O          -2.6710   -1.4898   -0.8154 O.2     1  UNL11      -0.1528
     13 N          -3.2648    1.0920   -0.4783 N.3     1  UNL11      -0.1738
     14 C          -2.9335    2.4054   -0.9096 C.3     1  UNL11       0.0208
     15 C          -4.1116    3.1695   -1.4720 C.3     1  UNL11      -0.0385
     16 C          -4.9768    2.3242   -2.3511 C.3     1  UNL11      -0.0504
     17 C          -5.4260    1.0772   -1.6371 C.3     1  UNL11      -0.0359
     18 C          -4.6712    0.8909   -0.3541 C.3     1  UNL11       0.0291
     19 C          -5.0501   -0.3926    0.3252 C.3     1  UNL11      -0.0478
     20 C          -0.1704    1.3716   -0.8055 C.ar    1  UNL11      -0.0351
     21 C           1.1836    1.6488   -0.8627 C.ar    1  UNL11      -0.0564
     22 C           3.2888    1.2372   -4.0373 C.2     1  UNL11       0.4341
     23 O           2.0490    0.9863   -4.0155 O.2     1  UNL11      -0.2120
     24 N           3.8972    1.4372   -5.2351 N.am    1  UNL11      -0.0359
     25 N           5.1832    1.7053   -5.3677 N.2     1  UNL11      -0.0085
     26 H           8.0688    1.5577   -3.7652 H       1  UNL11       0.0294
     27 H           7.7278    1.9357   -5.5362 H       1  UNL11       0.0294
     28 H           7.5704    3.1917   -4.2324 H       1  UNL11       0.0294
     29 H           6.0747    1.6806   -2.2043 H       1  UNL11       0.0643
     30 H           3.7660    1.9851   -0.9206 H       1  UNL11       0.0365
     31 H           4.0239    0.2393   -1.0948 H       1  UNL11       0.0365
     32 H           2.1985   -0.9636   -2.6809 H       1  UNL11       0.0621
     33 H          -0.2346   -1.4468   -2.5613 H       1  UNL11       0.0637
     34 H          -2.0908    2.4130   -1.6242 H       1  UNL11       0.0444
     35 H          -2.5912    2.9831   -0.0081 H       1  UNL11       0.0444
     36 H          -4.6657    3.6155   -0.6274 H       1  UNL11       0.0278
     37 H          -3.6834    4.0062   -2.0698 H       1  UNL11       0.0278
     38 H          -4.4739    2.0904   -3.2969 H       1  UNL11       0.0266
     39 H          -5.8592    2.9686   -2.6379 H       1  UNL11       0.0266
     40 H          -5.4378    0.1897   -2.2894 H       1  UNL11       0.0281
     41 H          -6.5040    1.2426   -1.3439 H       1  UNL11       0.0281
     42 H          -5.0407    1.7107    0.3327 H       1  UNL11       0.0477
     43 H          -4.3726   -0.5074    1.2022 H       1  UNL11       0.0245
     44 H          -5.1058   -1.2661   -0.3214 H       1  UNL11       0.0245
     45 H          -6.0818   -0.2692    0.7677 H       1  UNL11       0.0245
     46 H          -0.8655    2.0250   -0.2817 H       1  UNL11       0.0637
     47 H           1.5578    2.5371   -0.3697 H       1  UNL11       0.0621
     48 H           3.2794    1.3677   -6.0931 H       1  UNL11       0.4828
@<TRIPOS>BOND
     1     1     2    1
     2     1    26    1
     3     1    27    1
     4     1    28    1
     5     2     3    1
     6     3     4    2
     7     3    29    1
     8     4     5    1
     9     4    22    1
    10     5     6    1
    11     5    30    1
    12     5    31    1
    13     6     7   ar
    14     7     8   ar
    15     7    32    1
    16     8     9   ar
    17     8    33    1
    18     9    10    1
    19     9    20   ar
    20    10    11    2
    21    10    12    2
    22    10    13    1
    23    13    14    1
    24    14    15    1
    25    14    34    1
    26    14    35    1
    27    15    16    1
    28    15    36    1
    29    15    37    1
    30    16    17    1
    31    16    38    1
    32    16    39    1
    33    17    18    1
    34    17    40    1
    35    17    41    1
    36    18    19    1
    37    18    13    1
    38    18    42    1
    39    19    43    1
    40    19    44    1
    41    19    45    1
    42    20    21   ar
    43    20    46    1
    44    21     6   ar
    45    21    47    1
    46    22    23    2
    47    22    24   am
    48    24    25    1
    49    24    48    1
    50    25     2    2
@<TRIPOS>MOLECULE
*****
 48 50 0 0 0
SMALL
GASTEIGER

@<TRIPOS>ATOM
      1 C           2.9037    1.3036   -6.5389 C.3     1  UNL11      -0.0167
      2 C           3.7491    1.4077   -5.3202 C.2     1  UNL11       0.1045
      3 C           3.2667    1.2213   -4.0413 C.2     1  UNL11      -0.0218
      4 C           4.0720    1.3224   -2.9128 C.2     1  UNL11       0.0751
      5 C           3.5076    1.1188   -1.5828 C.3     1  UNL11       0.0074
      6 C           2.0652    0.8085   -1.5398 C.ar    1  UNL11      -0.0426
      7 C           1.5215   -0.3018   -2.1436 C.ar    1  UNL11      -0.0564
      8 C           0.1618   -0.5797   -2.0855 C.ar    1  UNL11      -0.0351
      9 C          -0.7139    0.2544   -1.4128 C.ar    1  UNL11       0.1055
     10 S          -2.4357   -0.1100   -1.3511 S.O2    1  UNL11       0.0611
     11 O          -2.9043   -0.1277   -2.7931 O.2     1  UNL11      -0.1528
     12 O          -2.6710   -1.4898   -0.8154 O.2     1  UNL11      -0.1528
     13 N          -3.2648    1.0920   -0.4783 N.3     1  UNL11      -0.1738
     14 C          -2.9815    1.0481    0.9140 C.3     1  UNL11       0.0208
     15 C          -2.3123    2.3017    1.4321 C.3     1  UNL11      -0.0385
     16 C          -1.2593    2.8158    0.5032 C.3     1  UNL11      -0.0504
     17 C          -1.8094    3.0239   -0.8826 C.3     1  UNL11      -0.0359
     18 C          -3.1706    2.4085   -1.0187 C.3     1  UNL11       0.0291
     19 C          -3.6941    2.5358   -2.4195 C.3     1  UNL11      -0.0478
     20 C          -0.1704    1.3716   -0.8055 C.ar    1  UNL11      -0.0351
     21 C           1.1836    1.6488   -0.8627 C.ar    1  UNL11      -0.0564
     22 C           5.4016    1.6200   -3.0820 C.2     1  UNL11       0.4341
     23 O           6.2251    1.7356   -2.1286 O.2     1  UNL11      -0.2120
     24 N           5.8418    1.7971   -4.3548 N.am    1  UNL11      -0.0359
     25 N           5.0660    1.6983   -5.4185 N.2     1  UNL11      -0.0085
     26 H           1.8993    1.7039   -6.3610 H       1  UNL11       0.0294
     27 H           3.4291    1.7667   -7.3864 H       1  UNL11       0.0294
     28 H           2.7719    0.2066   -6.7258 H       1  UNL11       0.0294
     29 H           2.2130    0.9883   -3.9491 H       1  UNL11       0.0643
     30 H           3.7660    1.9851   -0.9206 H       1  UNL11       0.0365
     31 H           4.0239    0.2393   -1.0948 H       1  UNL11       0.0365
     32 H           2.1985   -0.9636   -2.6809 H       1  UNL11       0.0621
     33 H          -0.2346   -1.4468   -2.5613 H       1  UNL11       0.0637
     34 H          -2.3979    0.1532    1.1962 H       1  UNL11       0.0444
     35 H          -3.9622    0.9726    1.4583 H       1  UNL11       0.0444
     36 H          -3.0984    3.0480    1.6429 H       1  UNL11       0.0278
     37 H          -1.8442    2.0258    2.4045 H       1  UNL11       0.0278
     38 H          -0.3811    2.1592    0.4960 H       1  UNL11       0.0266
     39 H          -0.8959    3.7890    0.9468 H       1  UNL11       0.0266
     40 H          -1.0998    2.7350   -1.6740 H       1  UNL11       0.0281
     41 H          -1.9557    4.1365   -1.0090 H       1  UNL11       0.0281
     42 H          -3.8546    3.0511   -0.3866 H       1  UNL11       0.0477
     43 H          -4.6487    1.9629   -2.4621 H       1  UNL11       0.0245
     44 H          -2.9847    2.2932   -3.2084 H       1  UNL11       0.0245
     45 H          -3.9913    3.6117   -2.5911 H       1  UNL11       0.0245
     46 H          -0.8655    2.0250   -0.2817 H       1  UNL11       0.0637
     47 H           1.5578    2.5371   -0.3697 H       1  UNL11       0.0621
     48 H           6.8700    2.0266   -4.4685 H       1  UNL11       0.4828
@<TRIPOS>BOND
     1     1     2    1
     2     1    26    1
     3     1    27    1
     4     1    28    1
     5     2     3    1
     6     3     4    2
     7     3    29    1
     8     4     5    1
     9     4    22    1
    10     5     6    1
    11     5    30    1
    12     5    31    1
    13     6     7   ar
    14     7     8   ar
    15     7    32    1
    16     8     9   ar
    17     8    33    1
    18     9    10    1
    19     9    20   ar
    20    10    11    2
    21    10    12    2
    22    10    13    1
    23    13    14    1
    24    14    15    1
    25    14    34    1
    26    14    35    1
    27    15    16    1
    28    15    36    1
    29    15    37    1
    30    16    17    1
    31    16    38    1
    32    16    39    1
    33    17    18    1
    34    17    40    1
    35    17    41    1
    36    18    19    1
    37    18    13    1
    38    18    42    1
    39    19    43    1
    40    19    44    1
    41    19    45    1
    42    20    21   ar
    43    20    46    1
    44    21     6   ar
    45    21    47    1
    46    22    23    2
    47    22    24   am
    48    24    25    1
    49    24    48    1
    50    25     2    2
@<TRIPOS>MOLECULE
*****
 48 50 0 0 0
SMALL
GASTEIGER

@<TRIPOS>ATOM
      1 C           3.4519    5.1414    1.3800 C.3     1  UNL11      -0.0167
      2 C           3.9848    3.8071    0.9969 C.2     1  UNL11       0.1045
      3 C           3.5245    3.0860   -0.0852 C.2     1  UNL11      -0.0218
      4 C           4.0348    1.8395   -0.4289 C.2     1  UNL11       0.0751
      5 C           3.5076    1.1188   -1.5828 C.3     1  UNL11       0.0074
      6 C           2.0652    0.8085   -1.5398 C.ar    1  UNL11      -0.0426
      7 C           1.5215   -0.3018   -2.1436 C.ar    1  UNL11      -0.0564
      8 C           0.1618   -0.5797   -2.0855 C.ar    1  UNL11      -0.0351
      9 C          -0.7139    0.2544   -1.4128 C.ar    1  UNL11       0.1055
     10 S          -2.4357   -0.1100   -1.3511 S.O2    1  UNL11       0.0611
     11 O          -2.7678   -0.2801    0.1186 O.2     1  UNL11      -0.1528
     12 O          -3.2460    1.0549   -1.8333 O.2     1  UNL11      -0.1528
     13 N          -2.7679   -1.5469   -2.1989 N.3     1  UNL11      -0.1738
     14 C          -2.1867   -1.5615   -3.4961 C.3     1  UNL11       0.0208
     15 C          -1.1668   -2.6622   -3.6866 C.3     1  UNL11      -0.0385
     16 C          -0.2726   -2.8275   -2.4995 C.3     1  UNL11      -0.0504
     17 C          -1.0712   -3.0355   -1.2404 C.3     1  UNL11      -0.0359
     18 C          -2.5254   -2.7502   -1.4727 C.3     1  UNL11       0.0291
     19 C          -3.3191   -2.8724   -0.2049 C.3     1  UNL11      -0.0478
     20 C          -0.1704    1.3716   -0.8055 C.ar    1  UNL11      -0.0351
     21 C           1.1836    1.6488   -0.8627 C.ar    1  UNL11      -0.0564
     22 C           5.0381    1.3076    0.3429 C.2     1  UNL11       0.4341
     23 O           5.5761    0.1838    0.1231 O.2     1  UNL11      -0.2120
     24 N           5.4663    2.0449    1.4002 N.am    1  UNL11      -0.0359
     25 N           4.9729    3.2282    1.7158 N.2     1  UNL11      -0.0085
     26 H           2.3708    5.2007    1.2111 H       1  UNL11       0.0294
     27 H           3.7600    5.3740    2.4093 H       1  UNL11       0.0294
     28 H           3.9175    5.8714    0.6686 H       1  UNL11       0.0294
     29 H           2.7327    3.5389   -0.6691 H       1  UNL11       0.0643
     30 H           4.1238    0.2031   -1.7764 H       1  UNL11       0.0365
     31 H           3.6570    1.7488   -2.5097 H       1  UNL11       0.0365
     32 H           2.1985   -0.9636   -2.6809 H       1  UNL11       0.0621
     33 H          -0.2346   -1.4468   -2.5613 H       1  UNL11       0.0637
     34 H          -1.7561   -0.5828   -3.7747 H       1  UNL11       0.0444
     35 H          -3.0084   -1.7691   -4.2346 H       1  UNL11       0.0444
     36 H          -1.7073   -3.5890   -3.9476 H       1  UNL11       0.0278
     37 H          -0.5559   -2.3711   -4.5713 H       1  UNL11       0.0278
     38 H           0.4212   -1.9838   -2.4043 H       1  UNL11       0.0266
     39 H           0.3804   -3.7227   -2.7194 H       1  UNL11       0.0266
     40 H          -0.6409   -2.5176   -0.3686 H       1  UNL11       0.0281
     41 H          -1.0045   -4.1354   -0.9929 H       1  UNL11       0.0281
     42 H          -2.8935   -3.5901   -2.1355 H       1  UNL11       0.0477
     43 H          -4.3566   -2.5403   -0.4386 H       1  UNL11       0.0245
     44 H          -2.8788   -2.3995    0.6709 H       1  UNL11       0.0245
     45 H          -3.4141   -3.9683    0.0505 H       1  UNL11       0.0245
     46 H          -0.8655    2.0250   -0.2817 H       1  UNL11       0.0637
     47 H           1.5578    2.5371   -0.3697 H       1  UNL11       0.0621
     48 H           6.2405    1.6205    1.9860 H       1  UNL11       0.4828
@<TRIPOS>BOND
     1     1     2    1
     2     1    26    1
     3     1    27    1
     4     1    28    1
     5     2     3    1
     6     3     4    2
     7     3    29    1
     8     4     5    1
     9     4    22    1
    10     5     6    1
    11     5    30    1
    12     5    31    1
    13     6     7   ar
    14     7     8   ar
    15     7    32    1
    16     8     9   ar
    17     8    33    1
    18     9    10    1
    19     9    20   ar
    20    10    11    2
    21    10    12    2
    22    10    13    1
    23    13    14    1
    24    14    15    1
    25    14    34    1
    26    14    35    1
    27    15    16    1
    28    15    36    1
    29    15    37    1
    30    16    17    1
    31    16    38    1
    32    16    39    1
    33    17    18    1
    34    17    40    1
    35    17    41    1
    36    18    19    1
    37    18    13    1
    38    18    42    1
    39    19    43    1
    40    19    44    1
    41    19    45    1
    42    20    21   ar
    43    20    46    1
    44    21     6   ar
    45    21    47    1
    46    22    23    2
    47    22    24   am
    48    24    25    1
    49    24    48    1
    50    25     2    2
@<TRIPOS>MOLECULE
*****
 48 50 0 0 0
SMALL
GASTEIGER

@<TRIPOS>ATOM
      1 C           4.9411   -1.6505    2.3209 C.3     1  UNL11      -0.0167
      2 C           5.0655   -1.2303    0.9000 C.2     1  UNL11       0.1045
      3 C           4.2596   -0.2755    0.3155 C.2     1  UNL11      -0.0218
      4 C           4.3904    0.1053   -1.0150 C.2     1  UNL11       0.0751
      5 C           3.5076    1.1188   -1.5828 C.3     1  UNL11       0.0074
      6 C           2.0652    0.8085   -1.5398 C.ar    1  UNL11      -0.0426
      7 C           1.5215   -0.3018   -2.1436 C.ar    1  UNL11      -0.0564
      8 C           0.1618   -0.5797   -2.0855 C.ar    1  UNL11      -0.0351
      9 C          -0.7139    0.2544   -1.4128 C.ar    1  UNL11       0.1055
     10 S          -2.4357   -0.1100   -1.3511 S.O2    1  UNL11       0.0611
     11 O          -3.1312    1.0818   -1.9798 O.2     1  UNL11      -0.1528
     12 O          -2.7631   -1.2912   -2.2135 O.2     1  UNL11      -0.1528
     13 N          -2.9429   -0.3034    0.2611 N.3     1  UNL11      -0.1738
     14 C          -2.1050   -1.1873    0.9941 C.3     1  UNL11       0.0208
     15 C          -1.4092   -0.5264    2.1633 C.3     1  UNL11      -0.0385
     16 C          -0.8930    0.8364    1.8280 C.3     1  UNL11      -0.0504
     17 C          -1.9859    1.7129    1.2771 C.3     1  UNL11      -0.0359
     18 C          -3.2126    0.9089    0.9623 C.3     1  UNL11       0.0291
     19 C          -4.2796    1.7570    0.3340 C.3     1  UNL11      -0.0478
     20 C          -0.1704    1.3716   -0.8055 C.ar    1  UNL11      -0.0351
     21 C           1.1836    1.6488   -0.8627 C.ar    1  UNL11      -0.0564
     22 C           5.3629   -0.4958   -1.7753 C.2     1  UNL11       0.4341
     23 O           5.5716   -0.2272   -2.9938 O.2     1  UNL11      -0.2120
     24 N           6.1376   -1.4313   -1.1672 N.am    1  UNL11      -0.0359
     25 N           6.0029   -1.7839    0.0980 N.2     1  UNL11      -0.0085
     26 H           3.8923   -1.6741    2.6376 H       1  UNL11       0.0294
     27 H           5.4770   -2.5990    2.4677 H       1  UNL11       0.0294
     28 H           5.4285   -0.8403    2.9223 H       1  UNL11       0.0294
     29 H           3.5045    0.1755    0.9475 H       1  UNL11       0.0643
     30 H           3.8448    1.3835   -2.6182 H       1  UNL11       0.0365
     31 H           3.6305    2.0809   -1.0018 H       1  UNL11       0.0365
     32 H           2.1985   -0.9636   -2.6809 H       1  UNL11       0.0621
     33 H          -0.2346   -1.4468   -2.5613 H       1  UNL11       0.0637
     34 H          -1.3712   -1.7029    0.3486 H       1  UNL11       0.0444
     35 H          -2.7588   -1.9883    1.4350 H       1  UNL11       0.0444
     36 H          -2.1070   -0.5211    3.0191 H       1  UNL11       0.0278
     37 H          -0.5551   -1.1888    2.4325 H       1  UNL11       0.0278
     38 H          -0.0365    0.7799    1.1457 H       1  UNL11       0.0266
     39 H          -0.4769    1.2607    2.7888 H       1  UNL11       0.0266
     40 H          -1.6436    2.3595    0.4537 H       1  UNL11       0.0281
     41 H          -2.2811    2.4214    2.1056 H       1  UNL11       0.0281
     42 H          -3.6329    0.5981    1.9657 H       1  UNL11       0.0477
     43 H          -5.1039    1.0705    0.0330 H       1  UNL11       0.0245
     44 H          -3.9411    2.4299   -0.4515 H       1  UNL11       0.0245
     45 H          -4.7265    2.4164    1.1346 H       1  UNL11       0.0245
     46 H          -0.8655    2.0250   -0.2817 H       1  UNL11       0.0637
     47 H           1.5578    2.5371   -0.3697 H       1  UNL11       0.0621
     48 H           6.8830   -1.8861   -1.7674 H       1  UNL11       0.4828
@<TRIPOS>BOND
     1     1     2    1
     2     1    26    1
     3     1    27    1
     4     1    28    1
     5     2     3    1
     6     3     4    2
     7     3    29    1
     8     4     5    1
     9     4    22    1
    10     5     6    1
    11     5    30    1
    12     5    31    1
    13     6     7   ar
    14     7     8   ar
    15     7    32    1
    16     8     9   ar
    17     8    33    1
    18     9    10    1
    19     9    20   ar
    20    10    11    2
    21    10    12    2
    22    10    13    1
    23    13    14    1
    24    14    15    1
    25    14    34    1
    26    14    35    1
    27    15    16    1
    28    15    36    1
    29    15    37    1
    30    16    17    1
    31    16    38    1
    32    16    39    1
    33    17    18    1
    34    17    40    1
    35    17    41    1
    36    18    19    1
    37    18    13    1
    38    18    42    1
    39    19    43    1
    40    19    44    1
    41    19    45    1
    42    20    21   ar
    43    20    46    1
    44    21     6   ar
    45    21    47    1
    46    22    23    2
    47    22    24   am
    48    24    25    1
    49    24    48    1
    50    25     2    2
@<TRIPOS>MOLECULE
*****
 48 50 0 0 0
SMALL
GASTEIGER

@<TRIPOS>ATOM
      1 C           5.6063    5.6523   -1.6552 C.3     1  UNL11      -0.0167
      2 C           4.9405    4.5311   -0.9406 C.2     1  UNL11       0.1045
      3 C           4.5376    3.3664   -1.5601 C.2     1  UNL11      -0.0218
      4 C           3.9164    2.3280   -0.8759 C.2     1  UNL11       0.0751
      5 C           3.5076    1.1188   -1.5828 C.3     1  UNL11       0.0074
      6 C           2.0652    0.8085   -1.5398 C.ar    1  UNL11      -0.0426
      7 C           1.5215   -0.3018   -2.1436 C.ar    1  UNL11      -0.0564
      8 C           0.1618   -0.5797   -2.0855 C.ar    1  UNL11      -0.0351
      9 C          -0.7139    0.2544   -1.4128 C.ar    1  UNL11       0.1055
     10 S          -2.4357   -0.1100   -1.3511 S.O2    1  UNL11       0.0611
     11 O          -2.5457   -1.4640   -0.6775 O.2     1  UNL11      -0.1528
     12 O          -3.1558    0.8605   -0.4647 O.2     1  UNL11      -0.1528
     13 N          -3.0829   -0.1810   -2.9227 N.3     1  UNL11      -0.1738
     14 C          -3.5675    1.0782   -3.3703 C.3     1  UNL11       0.0208
     15 C          -2.8400    1.6053   -4.5872 C.3     1  UNL11      -0.0385
     16 C          -1.3618    1.3940   -4.5082 C.3     1  UNL11      -0.0504
     17 C          -1.0306   -0.0533   -4.2589 C.3     1  UNL11      -0.0359
     18 C          -2.2596   -0.8301   -3.8896 C.3     1  UNL11       0.0291
     19 C          -1.9295   -2.2558   -3.5567 C.3     1  UNL11      -0.0478
     20 C          -0.1704    1.3716   -0.8055 C.ar    1  UNL11      -0.0351
     21 C           1.1836    1.6488   -0.8627 C.ar    1  UNL11      -0.0564
     22 C           3.6967    2.4712    0.4718 C.2     1  UNL11       0.4341
     23 O           3.1417    1.5924    1.1930 O.2     1  UNL11      -0.2120
     24 N           4.1061    3.6309    1.0485 N.am    1  UNL11      -0.0359
     25 N           4.6952    4.6099    0.3868 N.2     1  UNL11      -0.0085
     26 H           5.1927    5.7833   -2.6615 H       1  UNL11       0.0294
     27 H           5.5659    6.5563   -1.0310 H       1  UNL11       0.0294
     28 H           6.6714    5.3340   -1.7966 H       1  UNL11       0.0294
     29 H           4.7282    3.2911   -2.6236 H       1  UNL11       0.0643
     30 H           4.1296    0.2497   -1.2459 H       1  UNL11       0.0365
     31 H           3.7638    1.2289   -2.6785 H       1  UNL11       0.0365
     32 H           2.1985   -0.9636   -2.6809 H       1  UNL11       0.0621
     33 H          -0.2346   -1.4468   -2.5613 H       1  UNL11       0.0637
     34 H          -3.5749    1.8357   -2.5659 H       1  UNL11       0.0444
     35 H          -4.6375    0.9384   -3.6852 H       1  UNL11       0.0444
     36 H          -3.2911    1.1435   -5.4830 H       1  UNL11       0.0278
     37 H          -3.0551    2.6974   -4.6300 H       1  UNL11       0.0278
     38 H          -0.9066    2.0490   -3.7558 H       1  UNL11       0.0266
     39 H          -0.9405    1.7431   -5.4965 H       1  UNL11       0.0266
     40 H          -0.1844   -0.1869   -3.5666 H       1  UNL11       0.0281
     41 H          -0.6767   -0.4785   -5.2435 H       1  UNL11       0.0281
     42 H          -2.8773   -0.8816   -4.8362 H       1  UNL11       0.0477
     43 H          -2.8692   -2.7290   -3.1900 H       1  UNL11       0.0245
     44 H          -1.0678   -2.3977   -2.9073 H       1  UNL11       0.0245
     45 H          -1.6854   -2.7974   -4.5171 H       1  UNL11       0.0245
     46 H          -0.8655    2.0250   -0.2817 H       1  UNL11       0.0637
     47 H           1.5578    2.5371   -0.3697 H       1  UNL11       0.0621
     48 H           3.9290    3.7262    2.0888 H       1  UNL11       0.4828
@<TRIPOS>BOND
     1     1     2    1
     2     1    26    1
     3     1    27    1
     4     1    28    1
     5     2     3    1
     6     3     4    2
     7     3    29    1
     8     4     5    1
     9     4    22    1
    10     5     6    1
    11     5    30    1
    12     5    31    1
    13     6     7   ar
    14     7     8   ar
    15     7    32    1
    16     8     9   ar
    17     8    33    1
    18     9    10    1
    19     9    20   ar
    20    10    11    2
    21    10    12    2
    22    10    13    1
    23    13    14    1
    24    14    15    1
    25    14    34    1
    26    14    35    1
    27    15    16    1
    28    15    36    1
    29    15    37    1
    30    16    17    1
    31    16    38    1
    32    16    39    1
    33    17    18    1
    34    17    40    1
    35    17    41    1
    36    18    19    1
    37    18    13    1
    38    18    42    1
    39    19    43    1
    40    19    44    1
    41    19    45    1
    42    20    21   ar
    43    20    46    1
    44    21     6   ar
    45    21    47    1
    46    22    23    2
    47    22    24   am
    48    24    25    1
    49    24    48    1
    50    25     2    2
