@<TRIPOS>MOLECULE
*****
 34 36 0 0 0
SMALL
GASTEIGER

@<TRIPOS>ATOM
      1 N           2.8405    3.0228    2.9718 N.2     1  UNL11      -0.2466
      2 S           2.1144    3.2410    1.5993 S.3     1  UNL11       0.0680
      3 O           3.0907    2.7673    0.2865 O.3     1  UNL11      -0.4186
      4 C           2.7569    1.7896   -0.6254 C.ar    1  UNL11       0.1393
      5 C           3.5899    1.4337   -1.6630 C.ar    1  UNL11      -0.0184
      6 C           3.1920    0.4466   -2.5386 C.ar    1  UNL11      -0.0580
      7 C           1.9751   -0.2087   -2.4156 C.ar    1  UNL11      -0.0580
      8 C           1.1502    0.1530   -1.3772 C.ar    1  UNL11      -0.0379
      9 C          -0.1517   -0.4857   -1.1717 C.3     1  UNL11       0.0212
     10 C          -0.9011    0.0486   -0.0132 C.2     1  UNL11       0.1192
     11 N          -1.7603    1.0742   -0.0866 N.2     1  UNL11      -0.0073
     12 N          -2.4126    1.5204    0.9861 N.am    1  UNL11      -0.0356
     13 C          -2.2136    0.9342    2.1866 C.2     1  UNL11       0.4383
     14 O          -2.8191    1.3390    3.2137 O.2     1  UNL11      -0.2116
     15 C          -1.3441   -0.1207    2.3183 C.ar    1  UNL11       0.1004
     16 C          -1.1449   -0.7154    3.5465 C.ar    1  UNL11      -0.0441
     17 C          -0.2700   -1.7672    3.6468 C.ar    1  UNL11      -0.0608
     18 C           0.3920   -2.2141    2.5382 C.ar    1  UNL11      -0.0611
     19 C           0.1911   -1.6224    1.3269 C.ar    1  UNL11      -0.0518
     20 C          -0.6853   -0.5626    1.2060 C.ar    1  UNL11       0.0192
     21 C           1.5551    1.1395   -0.5075 C.ar    1  UNL11      -0.0149
     22 H           3.7849    2.6377    2.9810 H       1  UNL11       0.1976
     23 H           0.9304    2.4939    1.5443 H       1  UNL11       0.1591
     24 H           4.5571    1.9456   -1.7711 H       1  UNL11       0.0654
     25 H           3.8588    0.1700   -3.3593 H       1  UNL11       0.0619
     26 H           1.7013   -0.9877   -3.1363 H       1  UNL11       0.0620
     27 H          -0.7602   -0.4079   -2.1136 H       1  UNL11       0.0379
     28 H          -0.0094   -1.5815   -0.9766 H       1  UNL11       0.0379
     29 H          -3.0761    2.3078    0.9447 H       1  UNL11       0.4829
     30 H          -1.6842   -0.3415    4.4161 H       1  UNL11       0.0627
     31 H          -0.1254   -2.2235    4.6224 H       1  UNL11       0.0618
     32 H           1.0829   -3.0451    2.6186 H       1  UNL11       0.0618
     33 H           0.7433   -2.0133    0.4639 H       1  UNL11       0.0624
     34 H           0.8966    1.4313    0.3252 H       1  UNL11       0.0657
@<TRIPOS>BOND
     1     1     2    2
     2     1    22    1
     3     2     3    1
     4     2    23    1
     5     3     4    1
     6     4     5   ar
     7     5     6   ar
     8     5    24    1
     9     6     7   ar
    10     6    25    1
    11     7     8   ar
    12     7    26    1
    13     8     9    1
    14     8    21   ar
    15     9    10    1
    16     9    27    1
    17     9    28    1
    18    10    11    2
    19    11    12    1
    20    12    13   am
    21    12    29    1
    22    13    14    2
    23    13    15    1
    24    15    16   ar
    25    16    17   ar
    26    16    30    1
    27    17    18   ar
    28    17    31    1
    29    18    19   ar
    30    18    32    1
    31    19    20   ar
    32    19    33    1
    33    20    10    1
    34    20    15   ar
    35    21     4   ar
    36    21    34    1
@<TRIPOS>MOLECULE
*****
 34 36 0 0 0
SMALL
GASTEIGER

@<TRIPOS>ATOM
      1 N           4.0032    2.2057    3.3951 N.2     1  UNL11      -0.2466
      2 S           3.0524    1.5630    2.3266 S.3     1  UNL11       0.0680
      3 O           3.6832    1.7091    0.7513 O.3     1  UNL11      -0.4186
      4 C           3.0593    1.2496   -0.3882 C.ar    1  UNL11       0.1393
      5 C           3.6198    1.3803   -1.6395 C.ar    1  UNL11      -0.0184
      6 C           2.9397    0.8974   -2.7366 C.ar    1  UNL11      -0.0580
      7 C           1.7019    0.2792   -2.6299 C.ar    1  UNL11      -0.0580
      8 C           1.1502    0.1530   -1.3772 C.ar    1  UNL11      -0.0379
      9 C          -0.1517   -0.4857   -1.1717 C.3     1  UNL11       0.0212
     10 C          -0.9011    0.0486   -0.0132 C.2     1  UNL11       0.1192
     11 N          -0.4475    1.0240    0.7858 N.2     1  UNL11      -0.0073
     12 N          -1.1600    1.4725    1.8185 N.am    1  UNL11      -0.0356
     13 C          -2.3735    0.9402    2.0804 C.2     1  UNL11       0.4383
     14 O          -3.0643    1.3483    3.0508 O.2     1  UNL11      -0.2116
     15 C          -2.8863   -0.0617    1.2935 C.ar    1  UNL11       0.1004
     16 C          -4.1259   -0.6015    1.5656 C.ar    1  UNL11      -0.0441
     17 C          -4.6117   -1.6012    0.7617 C.ar    1  UNL11      -0.0608
     18 C          -3.8699   -2.0511   -0.2938 C.ar    1  UNL11      -0.0611
     19 C          -2.6454   -1.5140   -0.5579 C.ar    1  UNL11      -0.0518
     20 C          -2.1395   -0.5071    0.2397 C.ar    1  UNL11       0.0192
     21 C           1.8360    0.6380   -0.2872 C.ar    1  UNL11      -0.0149
     22 H           4.8757    2.6378    3.0911 H       1  UNL11       0.1976
     23 H           2.8669    0.1994    2.5892 H       1  UNL11       0.1591
     24 H           4.6003    1.8684   -1.7372 H       1  UNL11       0.0654
     25 H           3.3912    1.0051   -3.7261 H       1  UNL11       0.0619
     26 H           1.1983   -0.0894   -3.5308 H       1  UNL11       0.0620
     27 H          -0.7602   -0.4079   -2.1136 H       1  UNL11       0.0379
     28 H          -0.0094   -1.5815   -0.9766 H       1  UNL11       0.0379
     29 H          -0.8240    2.2217    2.4412 H       1  UNL11       0.4829
     30 H          -4.6988   -0.2262    2.4129 H       1  UNL11       0.0627
     31 H          -5.5901   -2.0146    0.9911 H       1  UNL11       0.0618
     32 H          -4.2546   -2.8410   -0.9283 H       1  UNL11       0.0618
     33 H          -2.0844   -1.9053   -1.4151 H       1  UNL11       0.0624
     34 H           1.3966    0.5383    0.7175 H       1  UNL11       0.0657
@<TRIPOS>BOND
     1     1     2    2
     2     1    22    1
     3     2     3    1
     4     2    23    1
     5     3     4    1
     6     4     5   ar
     7     5     6   ar
     8     5    24    1
     9     6     7   ar
    10     6    25    1
    11     7     8   ar
    12     7    26    1
    13     8     9    1
    14     8    21   ar
    15     9    10    1
    16     9    27    1
    17     9    28    1
    18    10    11    2
    19    11    12    1
    20    12    13   am
    21    12    29    1
    22    13    14    2
    23    13    15    1
    24    15    16   ar
    25    16    17   ar
    26    16    30    1
    27    17    18   ar
    28    17    31    1
    29    18    19   ar
    30    18    32    1
    31    19    20   ar
    32    19    33    1
    33    20    10    1
    34    20    15   ar
    35    21     4   ar
    36    21    34    1
@<TRIPOS>MOLECULE
*****
 34 36 0 0 0
SMALL
GASTEIGER

@<TRIPOS>ATOM
      1 N           5.2521   -0.2476   -5.2490 N.2     1  UNL11      -0.2466
      2 S           5.6537   -0.2730   -3.7335 S.3     1  UNL11       0.0680
      3 O           4.3853   -0.8500   -2.7540 O.3     1  UNL11      -0.4186
      4 C           3.4177   -0.0565   -2.1772 C.ar    1  UNL11       0.1393
      5 C           3.6552    1.2513   -1.8163 C.ar    1  UNL11      -0.0184
      6 C           2.6405    1.9874   -1.2435 C.ar    1  UNL11      -0.0580
      7 C           1.3782    1.4590   -1.0139 C.ar    1  UNL11      -0.0580
      8 C           1.1502    0.1530   -1.3772 C.ar    1  UNL11      -0.0379
      9 C          -0.1517   -0.4857   -1.1717 C.3     1  UNL11       0.0212
     10 C          -0.9011    0.0486   -0.0132 C.2     1  UNL11       0.1192
     11 N          -2.1078    0.6242   -0.1037 N.2     1  UNL11      -0.0073
     12 N          -2.7442    1.0910    0.9696 N.am    1  UNL11      -0.0356
     13 C          -2.1714    0.9890    2.1886 C.2     1  UNL11       0.4383
     14 O          -2.7542    1.4231    3.2169 O.2     1  UNL11      -0.2116
     15 C          -0.9360    0.4081    2.3384 C.ar    1  UNL11       0.1004
     16 C          -0.3559    0.3066    3.5855 C.ar    1  UNL11      -0.0441
     17 C           0.8791   -0.2787    3.7036 C.ar    1  UNL11      -0.0608
     18 C           1.5199   -0.7530    2.5940 C.ar    1  UNL11      -0.0611
     19 C           0.9418   -0.6499    1.3640 C.ar    1  UNL11      -0.0518
     20 C          -0.3005   -0.0641    1.2250 C.ar    1  UNL11       0.0192
     21 C           2.1688   -0.5749   -1.9485 C.ar    1  UNL11      -0.0149
     22 H           4.3201   -0.5582   -5.5234 H       1  UNL11       0.1976
     23 H           6.7630   -1.1047   -3.5319 H       1  UNL11       0.1591
     24 H           4.6515    1.6817   -1.9932 H       1  UNL11       0.0654
     25 H           2.8371    3.0245   -0.9600 H       1  UNL11       0.0619
     26 H           0.6023    2.0828   -0.5556 H       1  UNL11       0.0620
     27 H          -0.7602   -0.4079   -2.1136 H       1  UNL11       0.0379
     28 H          -0.0094   -1.5815   -0.9766 H       1  UNL11       0.0379
     29 H          -3.6721    1.5358    0.9152 H       1  UNL11       0.4829
     30 H          -0.8863    0.6921    4.4556 H       1  UNL11       0.0627
     31 H           1.3208   -0.3500    4.6939 H       1  UNL11       0.0618
     32 H           2.4956   -1.2152    2.6884 H       1  UNL11       0.0618
     33 H           1.4917   -1.0439    0.5009 H       1  UNL11       0.0624
     34 H           1.9891   -1.6212   -2.2405 H       1  UNL11       0.0657
@<TRIPOS>BOND
     1     1     2    2
     2     1    22    1
     3     2     3    1
     4     2    23    1
     5     3     4    1
     6     4     5   ar
     7     5     6   ar
     8     5    24    1
     9     6     7   ar
    10     6    25    1
    11     7     8   ar
    12     7    26    1
    13     8     9    1
    14     8    21   ar
    15     9    10    1
    16     9    27    1
    17     9    28    1
    18    10    11    2
    19    11    12    1
    20    12    13   am
    21    12    29    1
    22    13    14    2
    23    13    15    1
    24    15    16   ar
    25    16    17   ar
    26    16    30    1
    27    17    18   ar
    28    17    31    1
    29    18    19   ar
    30    18    32    1
    31    19    20   ar
    32    19    33    1
    33    20    10    1
    34    20    15   ar
    35    21     4   ar
    36    21    34    1
@<TRIPOS>MOLECULE
*****
 34 36 0 0 0
SMALL
GASTEIGER

@<TRIPOS>ATOM
      1 N           2.9255   -0.9490    2.4118 N.2     1  UNL11      -0.2466
      2 S           4.2830   -0.7665    1.6486 S.3     1  UNL11       0.0680
      3 O           4.2250    0.5439    0.5621 O.3     1  UNL11      -0.4186
      4 C           3.3358    0.6549   -0.4848 C.ar    1  UNL11       0.1393
      5 C           3.6471    1.3216   -1.6491 C.ar    1  UNL11      -0.0184
      6 C           2.7089    1.3937   -2.6560 C.ar    1  UNL11      -0.0580
      7 C           1.4521    0.8163   -2.5427 C.ar    1  UNL11      -0.0580
      8 C           1.1502    0.1530   -1.3772 C.ar    1  UNL11      -0.0379
      9 C          -0.1517   -0.4857   -1.1717 C.3     1  UNL11       0.0212
     10 C          -0.9011    0.0486   -0.0132 C.2     1  UNL11       0.1192
     11 N          -0.4463    0.0256    1.2471 N.2     1  UNL11      -0.0073
     12 N          -1.1588    0.5198    2.2586 N.am    1  UNL11      -0.0356
     13 C          -2.3737    1.0618    2.0242 C.2     1  UNL11       0.4383
     14 O          -3.0646    1.5348    2.9646 O.2     1  UNL11      -0.2116
     15 C          -2.8877    1.1111    0.7517 C.ar    1  UNL11       0.1004
     16 C          -4.1287    1.6657    0.5182 C.ar    1  UNL11      -0.0441
     17 C          -4.6157    1.7008   -0.7637 C.ar    1  UNL11      -0.0608
     18 C          -3.8738    1.1901   -1.7912 C.ar    1  UNL11      -0.0611
     19 C          -2.6480    0.6432   -1.5545 C.ar    1  UNL11      -0.0518
     20 C          -2.1409    0.5988   -0.2713 C.ar    1  UNL11       0.0192
     21 C           2.0927    0.0858   -0.3768 C.ar    1  UNL11      -0.0149
     22 H           2.1536   -0.3115    2.2165 H       1  UNL11       0.1976
     23 H           5.3274   -0.5284    2.5516 H       1  UNL11       0.1591
     24 H           4.6398    1.7833   -1.7511 H       1  UNL11       0.0654
     25 H           2.9637    1.9245   -3.5768 H       1  UNL11       0.0619
     26 H           0.7385    0.8996   -3.3703 H       1  UNL11       0.0620
     27 H          -0.7602   -0.4079   -2.1136 H       1  UNL11       0.0379
     28 H          -0.0094   -1.5815   -0.9766 H       1  UNL11       0.0379
     29 H          -0.8220    0.5089    3.2324 H       1  UNL11       0.4829
     30 H          -4.7016    2.0665    1.3537 H       1  UNL11       0.0627
     31 H          -5.5952    2.1414   -0.9289 H       1  UNL11       0.0618
     32 H          -4.2595    1.2183   -2.8036 H       1  UNL11       0.0618
     33 H          -2.0871    0.2453   -2.4086 H       1  UNL11       0.0624
     34 H           1.8538   -0.4449    0.5578 H       1  UNL11       0.0657
@<TRIPOS>BOND
     1     1     2    2
     2     1    22    1
     3     2     3    1
     4     2    23    1
     5     3     4    1
     6     4     5   ar
     7     5     6   ar
     8     5    24    1
     9     6     7   ar
    10     6    25    1
    11     7     8   ar
    12     7    26    1
    13     8     9    1
    14     8    21   ar
    15     9    10    1
    16     9    27    1
    17     9    28    1
    18    10    11    2
    19    11    12    1
    20    12    13   am
    21    12    29    1
    22    13    14    2
    23    13    15    1
    24    15    16   ar
    25    16    17   ar
    26    16    30    1
    27    17    18   ar
    28    17    31    1
    29    18    19   ar
    30    18    32    1
    31    19    20   ar
    32    19    33    1
    33    20    10    1
    34    20    15   ar
    35    21     4   ar
    36    21    34    1
@<TRIPOS>MOLECULE
*****
 34 36 0 0 0
SMALL
GASTEIGER

@<TRIPOS>ATOM
      1 N           6.9659   -0.1787    1.0168 N.2     1  UNL11      -0.2466
      2 S           6.1839    0.1279   -0.3073 S.3     1  UNL11       0.0680
      3 O           4.5741   -0.4232   -0.2315 O.3     1  UNL11      -0.4186
      4 C           3.5140    0.1614   -0.8898 C.ar    1  UNL11       0.1393
      5 C           3.6647    1.2728   -1.6891 C.ar    1  UNL11      -0.0184
      6 C           2.5602    1.8056   -2.3180 C.ar    1  UNL11      -0.0580
      7 C           1.2911    1.2622   -2.1768 C.ar    1  UNL11      -0.0580
      8 C           1.1502    0.1530   -1.3772 C.ar    1  UNL11      -0.0379
      9 C          -0.1517   -0.4857   -1.1717 C.3     1  UNL11       0.0212
     10 C          -0.9011    0.0486   -0.0132 C.2     1  UNL11       0.1192
     11 N          -1.7583   -0.6738    0.7210 N.2     1  UNL11      -0.0073
     12 N          -2.4107   -0.1476    1.7566 N.am    1  UNL11      -0.0356
     13 C          -2.2140    1.1470    2.0882 C.2     1  UNL11       0.4383
     14 O          -2.8196    1.6655    3.0629 O.2     1  UNL11      -0.2116
     15 C          -1.3466    1.9327    1.3696 C.ar    1  UNL11       0.1004
     16 C          -1.1496    3.2539    1.7128 C.ar    1  UNL11      -0.0441
     17 C          -0.2769    4.0138    0.9761 C.ar    1  UNL11      -0.0608
     18 C           0.3851    3.4606   -0.0834 C.ar    1  UNL11      -0.0611
     19 C           0.1865    2.1543   -0.4179 C.ar    1  UNL11      -0.0518
     20 C          -0.6878    1.3736    0.3114 C.ar    1  UNL11       0.0192
     21 C           2.2582   -0.3726   -0.7529 C.ar    1  UNL11      -0.0149
     22 H           6.4866   -0.6555    1.7804 H       1  UNL11       0.1976
     23 H           6.1536    1.5069   -0.5532 H       1  UNL11       0.1591
     24 H           4.6653    1.7128   -1.8090 H       1  UNL11       0.0654
     25 H           2.6882    2.6877   -2.9506 H       1  UNL11       0.0619
     26 H           0.4421    1.7204   -2.6967 H       1  UNL11       0.0620
     27 H          -0.7602   -0.4079   -2.1136 H       1  UNL11       0.0379
     28 H          -0.0094   -1.5815   -0.9766 H       1  UNL11       0.0379
     29 H          -3.0726   -0.6908    2.3299 H       1  UNL11       0.4829
     30 H          -1.6890    3.6726    2.5617 H       1  UNL11       0.0627
     31 H          -0.1343    5.0527    1.2609 H       1  UNL11       0.0618
     32 H           1.0744    4.0619   -0.6647 H       1  UNL11       0.0618
     33 H           0.7387    1.7518   -1.2755 H       1  UNL11       0.0624
     34 H           2.1484   -1.2610   -0.1119 H       1  UNL11       0.0657
@<TRIPOS>BOND
     1     1     2    2
     2     1    22    1
     3     2     3    1
     4     2    23    1
     5     3     4    1
     6     4     5   ar
     7     5     6   ar
     8     5    24    1
     9     6     7   ar
    10     6    25    1
    11     7     8   ar
    12     7    26    1
    13     8     9    1
    14     8    21   ar
    15     9    10    1
    16     9    27    1
    17     9    28    1
    18    10    11    2
    19    11    12    1
    20    12    13   am
    21    12    29    1
    22    13    14    2
    23    13    15    1
    24    15    16   ar
    25    16    17   ar
    26    16    30    1
    27    17    18   ar
    28    17    31    1
    29    18    19   ar
    30    18    32    1
    31    19    20   ar
    32    19    33    1
    33    20    10    1
    34    20    15   ar
    35    21     4   ar
    36    21    34    1
@<TRIPOS>MOLECULE
*****
 34 36 0 0 0
SMALL
GASTEIGER

@<TRIPOS>ATOM
      1 N           5.1778    3.6268   -1.5318 N.2     1  UNL11      -0.2466
      2 S           3.9836    4.4224   -0.8997 S.3     1  UNL11       0.0680
      3 O           2.5843    3.4605   -0.7673 O.3     1  UNL11      -0.4186
      4 C           2.4985    2.1434   -1.1632 C.ar    1  UNL11       0.1393
      5 C           3.5644    1.4686   -1.7161 C.ar    1  UNL11      -0.0184
      6 C           3.4077    0.1514   -2.0897 C.ar    1  UNL11      -0.0580
      7 C           2.2085   -0.5283   -1.9298 C.ar    1  UNL11      -0.0580
      8 C           1.1502    0.1530   -1.3772 C.ar    1  UNL11      -0.0379
      9 C          -0.1517   -0.4857   -1.1717 C.3     1  UNL11       0.0212
     10 C          -0.9011    0.0486   -0.0132 C.2     1  UNL11       0.1192
     11 N          -2.1078    0.6242   -0.1037 N.2     1  UNL11      -0.0073
     12 N          -2.7442    1.0910    0.9696 N.am    1  UNL11      -0.0356
     13 C          -2.1714    0.9890    2.1886 C.2     1  UNL11       0.4383
     14 O          -2.7542    1.4231    3.2169 O.2     1  UNL11      -0.2116
     15 C          -0.9360    0.4081    2.3384 C.ar    1  UNL11       0.1004
     16 C          -0.3559    0.3066    3.5855 C.ar    1  UNL11      -0.0441
     17 C           0.8791   -0.2787    3.7036 C.ar    1  UNL11      -0.0608
     18 C           1.5199   -0.7530    2.5940 C.ar    1  UNL11      -0.0611
     19 C           0.9418   -0.6499    1.3640 C.ar    1  UNL11      -0.0518
     20 C          -0.3005   -0.0641    1.2250 C.ar    1  UNL11       0.0192
     21 C           1.3151    1.4681   -1.0069 C.ar    1  UNL11      -0.0149
     22 H           5.0413    2.6528   -1.8016 H       1  UNL11       0.1976
     23 H           4.3169    4.8729    0.3844 H       1  UNL11       0.1591
     24 H           4.5201    1.9963   -1.8480 H       1  UNL11       0.0654
     25 H           4.2584   -0.3770   -2.5277 H       1  UNL11       0.0619
     26 H           2.1311   -1.5760   -2.2418 H       1  UNL11       0.0620
     27 H          -0.7602   -0.4079   -2.1136 H       1  UNL11       0.0379
     28 H          -0.0094   -1.5815   -0.9766 H       1  UNL11       0.0379
     29 H          -3.6721    1.5358    0.9152 H       1  UNL11       0.4829
     30 H          -0.8863    0.6921    4.4556 H       1  UNL11       0.0627
     31 H           1.3208   -0.3500    4.6939 H       1  UNL11       0.0618
     32 H           2.4956   -1.2152    2.6884 H       1  UNL11       0.0618
     33 H           1.4917   -1.0439    0.5009 H       1  UNL11       0.0624
     34 H           0.4693    2.0163   -0.5640 H       1  UNL11       0.0657
@<TRIPOS>BOND
     1     1     2    2
     2     1    22    1
     3     2     3    1
     4     2    23    1
     5     3     4    1
     6     4     5   ar
     7     5     6   ar
     8     5    24    1
     9     6     7   ar
    10     6    25    1
    11     7     8   ar
    12     7    26    1
    13     8     9    1
    14     8    21   ar
    15     9    10    1
    16     9    27    1
    17     9    28    1
    18    10    11    2
    19    11    12    1
    20    12    13   am
    21    12    29    1
    22    13    14    2
    23    13    15    1
    24    15    16   ar
    25    16    17   ar
    26    16    30    1
    27    17    18   ar
    28    17    31    1
    29    18    19   ar
    30    18    32    1
    31    19    20   ar
    32    19    33    1
    33    20    10    1
    34    20    15   ar
    35    21     4   ar
    36    21    34    1
@<TRIPOS>MOLECULE
*****
 34 36 0 0 0
SMALL
GASTEIGER

@<TRIPOS>ATOM
      1 N           3.2776   -2.7304    0.3469 N.2     1  UNL11      -0.2466
      2 S           4.6897   -2.0821    0.1364 S.3     1  UNL11       0.0680
      3 O           4.5741   -0.4232   -0.2315 O.3     1  UNL11      -0.4186
      4 C           3.5140    0.1614   -0.8898 C.ar    1  UNL11       0.1393
      5 C           3.6647    1.2728   -1.6891 C.ar    1  UNL11      -0.0184
      6 C           2.5602    1.8056   -2.3180 C.ar    1  UNL11      -0.0580
      7 C           1.2911    1.2622   -2.1768 C.ar    1  UNL11      -0.0580
      8 C           1.1502    0.1530   -1.3772 C.ar    1  UNL11      -0.0379
      9 C          -0.1517   -0.4857   -1.1717 C.3     1  UNL11       0.0212
     10 C          -0.9011    0.0486   -0.0132 C.2     1  UNL11       0.1192
     11 N          -1.7583   -0.6738    0.7210 N.2     1  UNL11      -0.0073
     12 N          -2.4107   -0.1476    1.7566 N.am    1  UNL11      -0.0356
     13 C          -2.2140    1.1470    2.0882 C.2     1  UNL11       0.4383
     14 O          -2.8196    1.6655    3.0629 O.2     1  UNL11      -0.2116
     15 C          -1.3466    1.9327    1.3696 C.ar    1  UNL11       0.1004
     16 C          -1.1496    3.2539    1.7128 C.ar    1  UNL11      -0.0441
     17 C          -0.2769    4.0138    0.9761 C.ar    1  UNL11      -0.0608
     18 C           0.3851    3.4606   -0.0834 C.ar    1  UNL11      -0.0611
     19 C           0.1865    2.1543   -0.4179 C.ar    1  UNL11      -0.0518
     20 C          -0.6878    1.3736    0.3114 C.ar    1  UNL11       0.0192
     21 C           2.2582   -0.3726   -0.7529 C.ar    1  UNL11      -0.0149
     22 H           2.4436   -2.1505    0.2546 H       1  UNL11       0.1976
     23 H           5.4682   -2.2110    1.2942 H       1  UNL11       0.1591
     24 H           4.6653    1.7128   -1.8090 H       1  UNL11       0.0654
     25 H           2.6882    2.6877   -2.9506 H       1  UNL11       0.0619
     26 H           0.4421    1.7204   -2.6967 H       1  UNL11       0.0620
     27 H          -0.7602   -0.4079   -2.1136 H       1  UNL11       0.0379
     28 H          -0.0094   -1.5815   -0.9766 H       1  UNL11       0.0379
     29 H          -3.0726   -0.6908    2.3299 H       1  UNL11       0.4829
     30 H          -1.6890    3.6726    2.5617 H       1  UNL11       0.0627
     31 H          -0.1343    5.0527    1.2609 H       1  UNL11       0.0618
     32 H           1.0744    4.0619   -0.6647 H       1  UNL11       0.0618
     33 H           0.7387    1.7518   -1.2755 H       1  UNL11       0.0624
     34 H           2.1484   -1.2610   -0.1119 H       1  UNL11       0.0657
@<TRIPOS>BOND
     1     1     2    2
     2     1    22    1
     3     2     3    1
     4     2    23    1
     5     3     4    1
     6     4     5   ar
     7     5     6   ar
     8     5    24    1
     9     6     7   ar
    10     6    25    1
    11     7     8   ar
    12     7    26    1
    13     8     9    1
    14     8    21   ar
    15     9    10    1
    16     9    27    1
    17     9    28    1
    18    10    11    2
    19    11    12    1
    20    12    13   am
    21    12    29    1
    22    13    14    2
    23    13    15    1
    24    15    16   ar
    25    16    17   ar
    26    16    30    1
    27    17    18   ar
    28    17    31    1
    29    18    19   ar
    30    18    32    1
    31    19    20   ar
    32    19    33    1
    33    20    10    1
    34    20    15   ar
    35    21     4   ar
    36    21    34    1
@<TRIPOS>MOLECULE
*****
 34 36 0 0 0
SMALL
GASTEIGER

@<TRIPOS>ATOM
      1 N           2.0180    1.0169    2.7729 N.2     1  UNL11      -0.2466
      2 S           3.5120    1.0136    2.2966 S.3     1  UNL11       0.0680
      3 O           3.6832    1.7091    0.7513 O.3     1  UNL11      -0.4186
      4 C           3.0593    1.2496   -0.3882 C.ar    1  UNL11       0.1393
      5 C           3.6198    1.3803   -1.6395 C.ar    1  UNL11      -0.0184
      6 C           2.9397    0.8974   -2.7366 C.ar    1  UNL11      -0.0580
      7 C           1.7019    0.2792   -2.6299 C.ar    1  UNL11      -0.0580
      8 C           1.1502    0.1530   -1.3772 C.ar    1  UNL11      -0.0379
      9 C          -0.1517   -0.4857   -1.1717 C.3     1  UNL11       0.0212
     10 C          -0.9011    0.0486   -0.0132 C.2     1  UNL11       0.1192
     11 N          -1.2847   -0.6919    1.0357 N.2     1  UNL11      -0.0073
     12 N          -1.9588   -0.1649    2.0569 N.am    1  UNL11      -0.0356
     13 C          -2.2716    1.1492    2.0499 C.2     1  UNL11       0.4383
     14 O          -2.9081    1.6688    3.0041 O.2     1  UNL11      -0.2116
     15 C          -1.9029    1.9540    1.0000 C.ar    1  UNL11       0.1004
     16 C          -2.2249    3.2950    0.9982 C.ar    1  UNL11      -0.0441
     17 C          -1.8430    4.0737   -0.0646 C.ar    1  UNL11      -0.0608
     18 C          -1.1521    3.5194   -1.1049 C.ar    1  UNL11      -0.0611
     19 C          -0.8367    2.1934   -1.0978 C.ar    1  UNL11      -0.0518
     20 C          -1.2123    1.3936   -0.0371 C.ar    1  UNL11       0.0192
     21 C           1.8360    0.6380   -0.2872 C.ar    1  UNL11      -0.0149
     22 H           1.3008    1.4096    2.1633 H       1  UNL11       0.1976
     23 H           4.3138    1.7417    3.1854 H       1  UNL11       0.1591
     24 H           4.6003    1.8684   -1.7372 H       1  UNL11       0.0654
     25 H           3.3912    1.0051   -3.7261 H       1  UNL11       0.0619
     26 H           1.1983   -0.0894   -3.5308 H       1  UNL11       0.0620
     27 H          -0.7602   -0.4079   -2.1136 H       1  UNL11       0.0379
     28 H          -0.0094   -1.5815   -0.9766 H       1  UNL11       0.0379
     29 H          -2.2602   -0.7219    2.8697 H       1  UNL11       0.4829
     30 H          -2.7764    3.7141    1.8391 H       1  UNL11       0.0627
     31 H          -2.1054    5.1280   -0.0489 H       1  UNL11       0.0618
     32 H          -0.8509    4.1355   -1.9441 H       1  UNL11       0.0618
     33 H          -0.2813    1.7908   -1.9533 H       1  UNL11       0.0624
     34 H           1.3966    0.5383    0.7175 H       1  UNL11       0.0657
@<TRIPOS>BOND
     1     1     2    2
     2     1    22    1
     3     2     3    1
     4     2    23    1
     5     3     4    1
     6     4     5   ar
     7     5     6   ar
     8     5    24    1
     9     6     7   ar
    10     6    25    1
    11     7     8   ar
    12     7    26    1
    13     8     9    1
    14     8    21   ar
    15     9    10    1
    16     9    27    1
    17     9    28    1
    18    10    11    2
    19    11    12    1
    20    12    13   am
    21    12    29    1
    22    13    14    2
    23    13    15    1
    24    15    16   ar
    25    16    17   ar
    26    16    30    1
    27    17    18   ar
    28    17    31    1
    29    18    19   ar
    30    18    32    1
    31    19    20   ar
    32    19    33    1
    33    20    10    1
    34    20    15   ar
    35    21     4   ar
    36    21    34    1
@<TRIPOS>MOLECULE
*****
 34 36 0 0 0
SMALL
GASTEIGER

@<TRIPOS>ATOM
      1 N           7.2443   -1.3568   -0.8813 N.2     1  UNL11      -0.2466
      2 S           6.2508   -0.4539   -1.6914 S.3     1  UNL11       0.0680
      3 O           4.6347   -0.9493   -1.4832 O.3     1  UNL11      -0.4186
      4 C           3.5449   -0.1072   -1.5286 C.ar    1  UNL11       0.1393
      5 C           3.6677    1.2463   -1.7522 C.ar    1  UNL11      -0.0184
      6 C           2.5344    2.0297   -1.7848 C.ar    1  UNL11      -0.0580
      7 C           1.2632    1.5048   -1.5997 C.ar    1  UNL11      -0.0580
      8 C           1.1502    0.1530   -1.3772 C.ar    1  UNL11      -0.0379
      9 C          -0.1517   -0.4857   -1.1717 C.3     1  UNL11       0.0212
     10 C          -0.9011    0.0486   -0.0132 C.2     1  UNL11       0.1192
     11 N          -2.1078    0.6242   -0.1037 N.2     1  UNL11      -0.0073
     12 N          -2.7442    1.0910    0.9696 N.am    1  UNL11      -0.0356
     13 C          -2.1714    0.9890    2.1886 C.2     1  UNL11       0.4383
     14 O          -2.7542    1.4231    3.2169 O.2     1  UNL11      -0.2116
     15 C          -0.9360    0.4081    2.3384 C.ar    1  UNL11       0.1004
     16 C          -0.3559    0.3066    3.5855 C.ar    1  UNL11      -0.0441
     17 C           0.8791   -0.2787    3.7036 C.ar    1  UNL11      -0.0608
     18 C           1.5199   -0.7530    2.5940 C.ar    1  UNL11      -0.0611
     19 C           0.9418   -0.6499    1.3640 C.ar    1  UNL11      -0.0518
     20 C          -0.3005   -0.0641    1.2250 C.ar    1  UNL11       0.0192
     21 C           2.2869   -0.6220   -1.3462 C.ar    1  UNL11      -0.0149
     22 H           6.8765   -2.1272   -0.3231 H       1  UNL11       0.1976
     23 H           6.3470    0.8805   -1.2751 H       1  UNL11       0.1591
     24 H           4.6697    1.6744   -1.9004 H       1  UNL11       0.0654
     25 H           2.6404    3.1029   -1.9628 H       1  UNL11       0.0619
     26 H           0.3907    2.1670   -1.6342 H       1  UNL11       0.0620
     27 H          -0.7602   -0.4079   -2.1136 H       1  UNL11       0.0379
     28 H          -0.0094   -1.5815   -0.9766 H       1  UNL11       0.0379
     29 H          -3.6721    1.5358    0.9152 H       1  UNL11       0.4829
     30 H          -0.8863    0.6921    4.4556 H       1  UNL11       0.0627
     31 H           1.3208   -0.3500    4.6939 H       1  UNL11       0.0618
     32 H           2.4956   -1.2152    2.6884 H       1  UNL11       0.0618
     33 H           1.4917   -1.0439    0.5009 H       1  UNL11       0.0624
     34 H           2.1995   -1.7050   -1.1682 H       1  UNL11       0.0657
@<TRIPOS>BOND
     1     1     2    2
     2     1    22    1
     3     2     3    1
     4     2    23    1
     5     3     4    1
     6     4     5   ar
     7     5     6   ar
     8     5    24    1
     9     6     7   ar
    10     6    25    1
    11     7     8   ar
    12     7    26    1
    13     8     9    1
    14     8    21   ar
    15     9    10    1
    16     9    27    1
    17     9    28    1
    18    10    11    2
    19    11    12    1
    20    12    13   am
    21    12    29    1
    22    13    14    2
    23    13    15    1
    24    15    16   ar
    25    16    17   ar
    26    16    30    1
    27    17    18   ar
    28    17    31    1
    29    18    19   ar
    30    18    32    1
    31    19    20   ar
    32    19    33    1
    33    20    10    1
    34    20    15   ar
    35    21     4   ar
    36    21    34    1
@<TRIPOS>MOLECULE
*****
 34 36 0 0 0
SMALL
GASTEIGER

@<TRIPOS>ATOM
      1 N           5.0346    0.3381    3.1391 N.2     1  UNL11      -0.2466
      2 S           3.7806    0.4358    2.2028 S.3     1  UNL11       0.0680
      3 O           4.2250    0.5439    0.5621 O.3     1  UNL11      -0.4186
      4 C           3.3358    0.6549   -0.4848 C.ar    1  UNL11       0.1393
      5 C           3.6471    1.3216   -1.6491 C.ar    1  UNL11      -0.0184
      6 C           2.7089    1.3937   -2.6560 C.ar    1  UNL11      -0.0580
      7 C           1.4521    0.8163   -2.5427 C.ar    1  UNL11      -0.0580
      8 C           1.1502    0.1530   -1.3772 C.ar    1  UNL11      -0.0379
      9 C          -0.1517   -0.4857   -1.1717 C.3     1  UNL11       0.0212
     10 C          -0.9011    0.0486   -0.0132 C.2     1  UNL11       0.1192
     11 N          -2.2385    0.0941    0.0561 N.2     1  UNL11      -0.0073
     12 N          -2.8689    0.5852    1.1222 N.am    1  UNL11      -0.0356
     13 C          -2.1555    1.0535    2.1692 C.2     1  UNL11       0.4383
     14 O          -2.7298    1.5221    3.1870 O.2     1  UNL11      -0.2116
     15 C          -0.7824    1.0307    2.1506 C.ar    1  UNL11       0.1004
     16 C          -0.0590    1.5102    3.2224 C.ar    1  UNL11      -0.0441
     17 C           1.3114    1.4742    3.1749 C.ar    1  UNL11      -0.0608
     18 C           1.9443    0.9677    2.0749 C.ar    1  UNL11      -0.0611
     19 C           1.2242    0.4952    1.0185 C.ar    1  UNL11      -0.0518
     20 C          -0.1557    0.5230    1.0479 C.ar    1  UNL11       0.0192
     21 C           2.0927    0.0858   -0.3768 C.ar    1  UNL11      -0.0149
     22 H           5.9673    0.3456    2.7264 H       1  UNL11       0.1976
     23 H           2.9651   -0.6936    2.3524 H       1  UNL11       0.1591
     24 H           4.6398    1.7833   -1.7511 H       1  UNL11       0.0654
     25 H           2.9637    1.9245   -3.5768 H       1  UNL11       0.0619
     26 H           0.7385    0.8996   -3.3703 H       1  UNL11       0.0620
     27 H          -0.7602   -0.4079   -2.1136 H       1  UNL11       0.0379
     28 H          -0.0094   -1.5815   -0.9766 H       1  UNL11       0.0379
     29 H          -3.8964    0.6265    1.1895 H       1  UNL11       0.4829
     30 H          -0.5861    1.9092    4.0884 H       1  UNL11       0.0627
     31 H           1.8649    1.8563    4.0283 H       1  UNL11       0.0618
     32 H           3.0271    0.9397    2.0384 H       1  UNL11       0.0618
     33 H           1.7732    0.0978    0.1565 H       1  UNL11       0.0624
     34 H           1.8538   -0.4449    0.5578 H       1  UNL11       0.0657
@<TRIPOS>BOND
     1     1     2    2
     2     1    22    1
     3     2     3    1
     4     2    23    1
     5     3     4    1
     6     4     5   ar
     7     5     6   ar
     8     5    24    1
     9     6     7   ar
    10     6    25    1
    11     7     8   ar
    12     7    26    1
    13     8     9    1
    14     8    21   ar
    15     9    10    1
    16     9    27    1
    17     9    28    1
    18    10    11    2
    19    11    12    1
    20    12    13   am
    21    12    29    1
    22    13    14    2
    23    13    15    1
    24    15    16   ar
    25    16    17   ar
    26    16    30    1
    27    17    18   ar
    28    17    31    1
    29    18    19   ar
    30    18    32    1
    31    19    20   ar
    32    19    33    1
    33    20    10    1
    34    20    15   ar
    35    21     4   ar
    36    21    34    1
@<TRIPOS>MOLECULE
*****
 34 36 0 0 0
SMALL
GASTEIGER

@<TRIPOS>ATOM
      1 N           1.3121   -0.2642   -5.6810 N.2     1  UNL11      -0.2466
      2 S           2.2928    0.9568   -5.6037 S.3     1  UNL11       0.0680
      3 O           3.3096    0.8644   -4.2405 O.3     1  UNL11      -0.4186
      4 C           2.8687    0.8185   -2.9358 C.ar    1  UNL11       0.1393
      5 C           3.6009    1.3378   -1.8912 C.ar    1  UNL11      -0.0184
      6 C           3.0987    1.2572   -0.6103 C.ar    1  UNL11      -0.0580
      7 C           1.8741    0.6686   -0.3285 C.ar    1  UNL11      -0.0580
      8 C           1.1502    0.1530   -1.3772 C.ar    1  UNL11      -0.0379
      9 C          -0.1517   -0.4857   -1.1717 C.3     1  UNL11       0.0212
     10 C          -0.9011    0.0486   -0.0132 C.2     1  UNL11       0.1192
     11 N          -1.7603    1.0742   -0.0866 N.2     1  UNL11      -0.0073
     12 N          -2.4126    1.5204    0.9861 N.am    1  UNL11      -0.0356
     13 C          -2.2136    0.9342    2.1866 C.2     1  UNL11       0.4383
     14 O          -2.8191    1.3390    3.2137 O.2     1  UNL11      -0.2116
     15 C          -1.3441   -0.1207    2.3183 C.ar    1  UNL11       0.1004
     16 C          -1.1449   -0.7154    3.5465 C.ar    1  UNL11      -0.0441
     17 C          -0.2700   -1.7672    3.6468 C.ar    1  UNL11      -0.0608
     18 C           0.3920   -2.2141    2.5382 C.ar    1  UNL11      -0.0611
     19 C           0.1911   -1.6224    1.3269 C.ar    1  UNL11      -0.0518
     20 C          -0.6853   -0.5626    1.2060 C.ar    1  UNL11       0.0192
     21 C           1.6590    0.2376   -2.6530 C.ar    1  UNL11      -0.0149
     22 H           1.3499   -0.9811   -4.9564 H       1  UNL11       0.1976
     23 H           3.1069    1.0074   -6.7429 H       1  UNL11       0.1591
     24 H           4.5730    1.8069   -2.1016 H       1  UNL11       0.0654
     25 H           3.6860    1.6717    0.2130 H       1  UNL11       0.0619
     26 H           1.5154    0.6276    0.7062 H       1  UNL11       0.0620
     27 H          -0.7602   -0.4079   -2.1136 H       1  UNL11       0.0379
     28 H          -0.0094   -1.5815   -0.9766 H       1  UNL11       0.0379
     29 H          -3.0761    2.3078    0.9447 H       1  UNL11       0.4829
     30 H          -1.6842   -0.3415    4.4161 H       1  UNL11       0.0627
     31 H          -0.1254   -2.2235    4.6224 H       1  UNL11       0.0618
     32 H           1.0829   -3.0451    2.6186 H       1  UNL11       0.0618
     33 H           0.7433   -2.0133    0.4639 H       1  UNL11       0.0624
     34 H           1.0814   -0.1744   -3.4949 H       1  UNL11       0.0657
@<TRIPOS>BOND
     1     1     2    2
     2     1    22    1
     3     2     3    1
     4     2    23    1
     5     3     4    1
     6     4     5   ar
     7     5     6   ar
     8     5    24    1
     9     6     7   ar
    10     6    25    1
    11     7     8   ar
    12     7    26    1
    13     8     9    1
    14     8    21   ar
    15     9    10    1
    16     9    27    1
    17     9    28    1
    18    10    11    2
    19    11    12    1
    20    12    13   am
    21    12    29    1
    22    13    14    2
    23    13    15    1
    24    15    16   ar
    25    16    17   ar
    26    16    30    1
    27    17    18   ar
    28    17    31    1
    29    18    19   ar
    30    18    32    1
    31    19    20   ar
    32    19    33    1
    33    20    10    1
    34    20    15   ar
    35    21     4   ar
    36    21    34    1
@<TRIPOS>MOLECULE
*****
 34 36 0 0 0
SMALL
GASTEIGER

@<TRIPOS>ATOM
      1 N           1.6597   -0.7983   -5.1540 N.2     1  UNL11      -0.2466
      2 S           3.2271   -0.8157   -5.1934 S.3     1  UNL11       0.0680
      3 O           3.9014   -0.1876   -3.7610 O.3     1  UNL11      -0.4186
      4 C           3.1707    0.2816   -2.6911 C.ar    1  UNL11       0.1393
      5 C           3.6308    1.2847   -1.8670 C.ar    1  UNL11      -0.0184
      6 C           2.8467    1.7053   -0.8146 C.ar    1  UNL11      -0.0580
      7 C           1.6013    1.1536   -0.5496 C.ar    1  UNL11      -0.0580
      8 C           1.1502    0.1530   -1.3772 C.ar    1  UNL11      -0.0379
      9 C          -0.1517   -0.4857   -1.1717 C.3     1  UNL11       0.0212
     10 C          -0.9011    0.0486   -0.0132 C.2     1  UNL11       0.1192
     11 N          -2.1066   -0.3958    0.3675 N.2     1  UNL11      -0.0073
     12 N          -2.7431    0.1177    1.4193 N.am    1  UNL11      -0.0356
     13 C          -2.1715    1.1131    2.1313 C.2     1  UNL11       0.4383
     14 O          -2.7545    1.6136    3.1289 O.2     1  UNL11      -0.2116
     15 C          -0.9374    1.6062    1.7849 C.ar    1  UNL11       0.1004
     16 C          -0.3587    2.6227    2.5155 C.ar    1  UNL11      -0.0441
     17 C           0.8750    3.0945    2.1453 C.ar    1  UNL11      -0.0608
     18 C           1.5159    2.5582    1.0643 C.ar    1  UNL11      -0.0611
     19 C           0.9391    1.5538    0.3459 C.ar    1  UNL11      -0.0518
     20 C          -0.3019    1.0657    0.7030 C.ar    1  UNL11       0.0192
     21 C           1.9394   -0.2610   -2.4257 C.ar    1  UNL11      -0.0149
     22 H           1.1854   -0.4356   -4.3271 H       1  UNL11       0.1976
     23 H           3.7012   -2.1245   -5.3522 H       1  UNL11       0.1591
     24 H           4.6162    1.7301   -2.0667 H       1  UNL11       0.0654
     25 H           3.2190    2.5018   -0.1654 H       1  UNL11       0.0619
     26 H           1.0131    1.5205    0.2992 H       1  UNL11       0.0620
     27 H          -0.7602   -0.4079   -2.1136 H       1  UNL11       0.0379
     28 H          -0.0094   -1.5815   -0.9766 H       1  UNL11       0.0379
     29 H          -3.6701   -0.2139    1.7235 H       1  UNL11       0.4829
     30 H          -0.8891    3.0343    3.3735 H       1  UNL11       0.0627
     31 H           1.3157    3.8956    2.7324 H       1  UNL11       0.0618
     32 H           2.4906    2.9317    0.7726 H       1  UNL11       0.0618
     33 H           1.4890    1.1531   -0.5140 H       1  UNL11       0.0624
     34 H           1.5808   -1.0622   -3.0903 H       1  UNL11       0.0657
@<TRIPOS>BOND
     1     1     2    2
     2     1    22    1
     3     2     3    1
     4     2    23    1
     5     3     4    1
     6     4     5   ar
     7     5     6   ar
     8     5    24    1
     9     6     7   ar
    10     6    25    1
    11     7     8   ar
    12     7    26    1
    13     8     9    1
    14     8    21   ar
    15     9    10    1
    16     9    27    1
    17     9    28    1
    18    10    11    2
    19    11    12    1
    20    12    13   am
    21    12    29    1
    22    13    14    2
    23    13    15    1
    24    15    16   ar
    25    16    17   ar
    26    16    30    1
    27    17    18   ar
    28    17    31    1
    29    18    19   ar
    30    18    32    1
    31    19    20   ar
    32    19    33    1
    33    20    10    1
    34    20    15   ar
    35    21     4   ar
    36    21    34    1
@<TRIPOS>MOLECULE
*****
 34 36 0 0 0
SMALL
GASTEIGER

@<TRIPOS>ATOM
      1 N           5.4691    3.2281   -0.9256 N.2     1  UNL11      -0.2466
      2 S           4.5436    3.6559    0.2656 S.3     1  UNL11       0.0680
      3 O           3.0907    2.7673    0.2865 O.3     1  UNL11      -0.4186
      4 C           2.7569    1.7896   -0.6254 C.ar    1  UNL11       0.1393
      5 C           3.5899    1.4337   -1.6630 C.ar    1  UNL11      -0.0184
      6 C           3.1920    0.4466   -2.5386 C.ar    1  UNL11      -0.0580
      7 C           1.9751   -0.2087   -2.4156 C.ar    1  UNL11      -0.0580
      8 C           1.1502    0.1530   -1.3772 C.ar    1  UNL11      -0.0379
      9 C          -0.1517   -0.4857   -1.1717 C.3     1  UNL11       0.0212
     10 C          -0.9011    0.0486   -0.0132 C.2     1  UNL11       0.1192
     11 N          -1.2871    1.3265    0.1032 N.2     1  UNL11      -0.0073
     12 N          -1.9611    1.7611    1.1671 N.am    1  UNL11      -0.0356
     13 C          -2.2712    0.9034    2.1635 C.2     1  UNL11       0.4383
     14 O          -2.9075    1.2919    3.1783 O.2     1  UNL11      -0.2116
     15 C          -1.9000   -0.4170    2.0954 C.ar    1  UNL11       0.1004
     16 C          -2.2194   -1.2883    3.1156 C.ar    1  UNL11      -0.0441
     17 C          -1.8350   -2.6016    3.0192 C.ar    1  UNL11      -0.0608
     18 C          -1.1443   -3.0330    1.9222 C.ar    1  UNL11      -0.0611
     19 C          -0.8313   -2.1674    0.9169 C.ar    1  UNL11      -0.0518
     20 C          -1.2095   -0.8421    0.9958 C.ar    1  UNL11       0.0192
     21 C           1.5551    1.1395   -0.5075 C.ar    1  UNL11      -0.0149
     22 H           5.1562    2.4955   -1.5625 H       1  UNL11       0.1976
     23 H           5.1905    3.4484    1.4909 H       1  UNL11       0.1591
     24 H           4.5571    1.9456   -1.7711 H       1  UNL11       0.0654
     25 H           3.8588    0.1700   -3.3593 H       1  UNL11       0.0619
     26 H           1.7013   -0.9877   -3.1363 H       1  UNL11       0.0620
     27 H          -0.7602   -0.4079   -2.1136 H       1  UNL11       0.0379
     28 H          -0.0094   -1.5815   -0.9766 H       1  UNL11       0.0379
     29 H          -2.2643    2.7406    1.2702 H       1  UNL11       0.4829
     30 H          -2.7708   -0.9208    3.9804 H       1  UNL11       0.0627
     31 H          -2.0952   -3.2736    3.8325 H       1  UNL11       0.0618
     32 H          -0.8411   -4.0708    1.8470 H       1  UNL11       0.0618
     33 H          -0.2760   -2.5568    0.0552 H       1  UNL11       0.0624
     34 H           0.8966    1.4313    0.3252 H       1  UNL11       0.0657
@<TRIPOS>BOND
     1     1     2    2
     2     1    22    1
     3     2     3    1
     4     2    23    1
     5     3     4    1
     6     4     5   ar
     7     5     6   ar
     8     5    24    1
     9     6     7   ar
    10     6    25    1
    11     7     8   ar
    12     7    26    1
    13     8     9    1
    14     8    21   ar
    15     9    10    1
    16     9    27    1
    17     9    28    1
    18    10    11    2
    19    11    12    1
    20    12    13   am
    21    12    29    1
    22    13    14    2
    23    13    15    1
    24    15    16   ar
    25    16    17   ar
    26    16    30    1
    27    17    18   ar
    28    17    31    1
    29    18    19   ar
    30    18    32    1
    31    19    20   ar
    32    19    33    1
    33    20    10    1
    34    20    15   ar
    35    21     4   ar
    36    21    34    1
@<TRIPOS>MOLECULE
*****
 34 36 0 0 0
SMALL
GASTEIGER

@<TRIPOS>ATOM
      1 N           5.4068    2.9010   -0.0590 N.2     1  UNL11      -0.2466
      2 S           5.4278    1.6900    0.9368 S.3     1  UNL11       0.0680
      3 O           4.2250    0.5439    0.5621 O.3     1  UNL11      -0.4186
      4 C           3.3358    0.6549   -0.4848 C.ar    1  UNL11       0.1393
      5 C           3.6471    1.3216   -1.6491 C.ar    1  UNL11      -0.0184
      6 C           2.7089    1.3937   -2.6560 C.ar    1  UNL11      -0.0580
      7 C           1.4521    0.8163   -2.5427 C.ar    1  UNL11      -0.0580
      8 C           1.1502    0.1530   -1.3772 C.ar    1  UNL11      -0.0379
      9 C          -0.1517   -0.4857   -1.1717 C.3     1  UNL11       0.0212
     10 C          -0.9011    0.0486   -0.0132 C.2     1  UNL11       0.1192
     11 N          -1.2871    1.3265    0.1032 N.2     1  UNL11      -0.0073
     12 N          -1.9611    1.7611    1.1671 N.am    1  UNL11      -0.0356
     13 C          -2.2712    0.9034    2.1635 C.2     1  UNL11       0.4383
     14 O          -2.9075    1.2919    3.1783 O.2     1  UNL11      -0.2116
     15 C          -1.9000   -0.4170    2.0954 C.ar    1  UNL11       0.1004
     16 C          -2.2194   -1.2883    3.1156 C.ar    1  UNL11      -0.0441
     17 C          -1.8350   -2.6016    3.0192 C.ar    1  UNL11      -0.0608
     18 C          -1.1443   -3.0330    1.9222 C.ar    1  UNL11      -0.0611
     19 C          -0.8313   -2.1674    0.9169 C.ar    1  UNL11      -0.0518
     20 C          -1.2095   -0.8421    0.9958 C.ar    1  UNL11       0.0192
     21 C           2.0927    0.0858   -0.3768 C.ar    1  UNL11      -0.0149
     22 H           4.7189    2.9160   -0.8119 H       1  UNL11       0.1976
     23 H           6.6679    1.0392    0.8944 H       1  UNL11       0.1591
     24 H           4.6398    1.7833   -1.7511 H       1  UNL11       0.0654
     25 H           2.9637    1.9245   -3.5768 H       1  UNL11       0.0619
     26 H           0.7385    0.8996   -3.3703 H       1  UNL11       0.0620
     27 H          -0.7602   -0.4079   -2.1136 H       1  UNL11       0.0379
     28 H          -0.0094   -1.5815   -0.9766 H       1  UNL11       0.0379
     29 H          -2.2643    2.7406    1.2702 H       1  UNL11       0.4829
     30 H          -2.7708   -0.9208    3.9804 H       1  UNL11       0.0627
     31 H          -2.0952   -3.2736    3.8325 H       1  UNL11       0.0618
     32 H          -0.8411   -4.0708    1.8470 H       1  UNL11       0.0618
     33 H          -0.2760   -2.5568    0.0552 H       1  UNL11       0.0624
     34 H           1.8538   -0.4449    0.5578 H       1  UNL11       0.0657
@<TRIPOS>BOND
     1     1     2    2
     2     1    22    1
     3     2     3    1
     4     2    23    1
     5     3     4    1
     6     4     5   ar
     7     5     6   ar
     8     5    24    1
     9     6     7   ar
    10     6    25    1
    11     7     8   ar
    12     7    26    1
    13     8     9    1
    14     8    21   ar
    15     9    10    1
    16     9    27    1
    17     9    28    1
    18    10    11    2
    19    11    12    1
    20    12    13   am
    21    12    29    1
    22    13    14    2
    23    13    15    1
    24    15    16   ar
    25    16    17   ar
    26    16    30    1
    27    17    18   ar
    28    17    31    1
    29    18    19   ar
    30    18    32    1
    31    19    20   ar
    32    19    33    1
    33    20    10    1
    34    20    15   ar
    35    21     4   ar
    36    21    34    1
@<TRIPOS>MOLECULE
*****
 34 36 0 0 0
SMALL
GASTEIGER

@<TRIPOS>ATOM
      1 N          -0.1254    3.6937   -2.5019 N.2     1  UNL11      -0.2466
      2 S           1.0896    4.1194   -3.3970 S.3     1  UNL11       0.0680
      3 O           2.3995    3.0426   -3.2365 O.3     1  UNL11      -0.4186
      4 C           2.4042    1.9301   -2.4234 C.ar    1  UNL11       0.1393
      5 C           3.5550    1.4476   -1.8406 C.ar    1  UNL11      -0.0184
      6 C           3.4864    0.3294   -1.0379 C.ar    1  UNL11      -0.0580
      7 C           2.2937   -0.3356   -0.7914 C.ar    1  UNL11      -0.0580
      8 C           1.1502    0.1530   -1.3772 C.ar    1  UNL11      -0.0379
      9 C          -0.1517   -0.4857   -1.1717 C.3     1  UNL11       0.0212
     10 C          -0.9011    0.0486   -0.0132 C.2     1  UNL11       0.1192
     11 N          -1.2871    1.3265    0.1032 N.2     1  UNL11      -0.0073
     12 N          -1.9611    1.7611    1.1671 N.am    1  UNL11      -0.0356
     13 C          -2.2712    0.9034    2.1635 C.2     1  UNL11       0.4383
     14 O          -2.9075    1.2919    3.1783 O.2     1  UNL11      -0.2116
     15 C          -1.9000   -0.4170    2.0954 C.ar    1  UNL11       0.1004
     16 C          -2.2194   -1.2883    3.1156 C.ar    1  UNL11      -0.0441
     17 C          -1.8350   -2.6016    3.0192 C.ar    1  UNL11      -0.0608
     18 C          -1.1443   -3.0330    1.9222 C.ar    1  UNL11      -0.0611
     19 C          -0.8313   -2.1674    0.9169 C.ar    1  UNL11      -0.0518
     20 C          -1.2095   -0.8421    0.9958 C.ar    1  UNL11       0.0192
     21 C           1.2276    1.2700   -2.1772 C.ar    1  UNL11      -0.0149
     22 H          -0.0505    2.8565   -1.9242 H       1  UNL11       0.1976
     23 H           0.7202    4.1464   -4.7482 H       1  UNL11       0.1591
     24 H           4.5065    1.9658   -2.0283 H       1  UNL11       0.0654
     25 H           4.4042   -0.0472   -0.5792 H       1  UNL11       0.0619
     26 H           2.2879   -1.2213   -0.1459 H       1  UNL11       0.0620
     27 H          -0.7602   -0.4079   -2.1136 H       1  UNL11       0.0379
     28 H          -0.0094   -1.5815   -0.9766 H       1  UNL11       0.0379
     29 H          -2.2643    2.7406    1.2702 H       1  UNL11       0.4829
     30 H          -2.7708   -0.9208    3.9804 H       1  UNL11       0.0627
     31 H          -2.0952   -3.2736    3.8325 H       1  UNL11       0.0618
     32 H          -0.8411   -4.0708    1.8470 H       1  UNL11       0.0618
     33 H          -0.2760   -2.5568    0.0552 H       1  UNL11       0.0624
     34 H           0.3133    1.6637   -2.6477 H       1  UNL11       0.0657
@<TRIPOS>BOND
     1     1     2    2
     2     1    22    1
     3     2     3    1
     4     2    23    1
     5     3     4    1
     6     4     5   ar
     7     5     6   ar
     8     5    24    1
     9     6     7   ar
    10     6    25    1
    11     7     8   ar
    12     7    26    1
    13     8     9    1
    14     8    21   ar
    15     9    10    1
    16     9    27    1
    17     9    28    1
    18    10    11    2
    19    11    12    1
    20    12    13   am
    21    12    29    1
    22    13    14    2
    23    13    15    1
    24    15    16   ar
    25    16    17   ar
    26    16    30    1
    27    17    18   ar
    28    17    31    1
    29    18    19   ar
    30    18    32    1
    31    19    20   ar
    32    19    33    1
    33    20    10    1
    34    20    15   ar
    35    21     4   ar
    36    21    34    1
@<TRIPOS>MOLECULE
*****
 34 36 0 0 0
SMALL
GASTEIGER

@<TRIPOS>ATOM
      1 N           3.4049    5.0275   -1.6911 N.2     1  UNL11      -0.2466
      2 S           3.4875    4.3460   -3.1008 S.3     1  UNL11       0.0680
      3 O           2.3995    3.0426   -3.2365 O.3     1  UNL11      -0.4186
      4 C           2.4042    1.9301   -2.4234 C.ar    1  UNL11       0.1393
      5 C           3.5550    1.4476   -1.8406 C.ar    1  UNL11      -0.0184
      6 C           3.4864    0.3294   -1.0379 C.ar    1  UNL11      -0.0580
      7 C           2.2937   -0.3356   -0.7914 C.ar    1  UNL11      -0.0580
      8 C           1.1502    0.1530   -1.3772 C.ar    1  UNL11      -0.0379
      9 C          -0.1517   -0.4857   -1.1717 C.3     1  UNL11       0.0212
     10 C          -0.9011    0.0486   -0.0132 C.2     1  UNL11       0.1192
     11 N          -0.7916    1.3076    0.4325 N.2     1  UNL11      -0.0073
     12 N          -1.4882    1.7430    1.4814 N.am    1  UNL11      -0.0356
     13 C          -2.3316    0.9057    2.1234 C.2     1  UNL11       0.4383
     14 O          -3.0000    1.2954    3.1168 O.2     1  UNL11      -0.2116
     15 C          -2.4821   -0.3948    1.7085 C.ar    1  UNL11       0.1004
     16 C          -3.3447   -1.2453    2.3679 C.ar    1  UNL11      -0.0441
     17 C          -3.4739   -2.5389    1.9302 C.ar    1  UNL11      -0.0608
     18 C          -2.7530   -2.9715    0.8532 C.ar    1  UNL11      -0.0611
     19 C          -1.9020   -2.1265    0.2055 C.ar    1  UNL11      -0.0518
     20 C          -1.7584   -0.8211    0.6310 C.ar    1  UNL11       0.0192
     21 C           1.2276    1.2700   -2.1772 C.ar    1  UNL11      -0.0149
     22 H           2.7481    4.6657   -0.9997 H       1  UNL11       0.1976
     23 H           3.1814    5.2667   -4.1116 H       1  UNL11       0.1591
     24 H           4.5065    1.9658   -2.0283 H       1  UNL11       0.0654
     25 H           4.4042   -0.0472   -0.5792 H       1  UNL11       0.0619
     26 H           2.2879   -1.2213   -0.1459 H       1  UNL11       0.0620
     27 H          -0.7602   -0.4079   -2.1136 H       1  UNL11       0.0379
     28 H          -0.0094   -1.5815   -0.9766 H       1  UNL11       0.0379
     29 H          -1.4142    2.7080    1.8351 H       1  UNL11       0.4829
     30 H          -3.9088   -0.8773    3.2242 H       1  UNL11       0.0627
     31 H          -4.1580   -3.1948    2.4618 H       1  UNL11       0.0618
     32 H          -2.8558   -3.9938    0.5082 H       1  UNL11       0.0618
     33 H          -1.3434   -2.5160   -0.6541 H       1  UNL11       0.0624
     34 H           0.3133    1.6637   -2.6477 H       1  UNL11       0.0657
@<TRIPOS>BOND
     1     1     2    2
     2     1    22    1
     3     2     3    1
     4     2    23    1
     5     3     4    1
     6     4     5   ar
     7     5     6   ar
     8     5    24    1
     9     6     7   ar
    10     6    25    1
    11     7     8   ar
    12     7    26    1
    13     8     9    1
    14     8    21   ar
    15     9    10    1
    16     9    27    1
    17     9    28    1
    18    10    11    2
    19    11    12    1
    20    12    13   am
    21    12    29    1
    22    13    14    2
    23    13    15    1
    24    15    16   ar
    25    16    17   ar
    26    16    30    1
    27    17    18   ar
    28    17    31    1
    29    18    19   ar
    30    18    32    1
    31    19    20   ar
    32    19    33    1
    33    20    10    1
    34    20    15   ar
    35    21     4   ar
    36    21    34    1
@<TRIPOS>MOLECULE
*****
 34 36 0 0 0
SMALL
GASTEIGER

@<TRIPOS>ATOM
      1 N           3.8853    4.4165   -4.8114 N.2     1  UNL11      -0.2466
      2 S           4.1588    2.9000   -4.5214 S.3     1  UNL11       0.0680
      3 O           2.7427    2.0837   -4.0425 O.3     1  UNL11      -0.4186
      4 C           2.5794    1.4408   -2.8348 C.ar    1  UNL11       0.1393
      5 C           3.5723    1.3992   -1.8812 C.ar    1  UNL11      -0.0184
      6 C           3.3402    0.7378   -0.6946 C.ar    1  UNL11      -0.0580
      7 C           2.1355    0.1064   -0.4198 C.ar    1  UNL11      -0.0580
      8 C           1.1502    0.1530   -1.3772 C.ar    1  UNL11      -0.0379
      9 C          -0.1517   -0.4857   -1.1717 C.3     1  UNL11       0.0212
     10 C          -0.9011    0.0486   -0.0132 C.2     1  UNL11       0.1192
     11 N          -2.1066   -0.3958    0.3675 N.2     1  UNL11      -0.0073
     12 N          -2.7431    0.1177    1.4193 N.am    1  UNL11      -0.0356
     13 C          -2.1715    1.1131    2.1313 C.2     1  UNL11       0.4383
     14 O          -2.7545    1.6136    3.1289 O.2     1  UNL11      -0.2116
     15 C          -0.9374    1.6062    1.7849 C.ar    1  UNL11       0.1004
     16 C          -0.3587    2.6227    2.5155 C.ar    1  UNL11      -0.0441
     17 C           0.8750    3.0945    2.1453 C.ar    1  UNL11      -0.0608
     18 C           1.5159    2.5582    1.0643 C.ar    1  UNL11      -0.0611
     19 C           0.9391    1.5538    0.3459 C.ar    1  UNL11      -0.0518
     20 C          -0.3019    1.0657    0.7030 C.ar    1  UNL11       0.0192
     21 C           1.3902    0.8155   -2.5592 C.ar    1  UNL11      -0.0149
     22 H           2.9401    4.7833   -4.7000 H       1  UNL11       0.1976
     23 H           4.6553    2.2616   -5.6655 H       1  UNL11       0.1591
     24 H           4.5316    1.8959   -2.0871 H       1  UNL11       0.0654
     25 H           4.1333    0.7095    0.0568 H       1  UNL11       0.0619
     26 H           1.9966   -0.4074    0.5382 H       1  UNL11       0.0620
     27 H          -0.7602   -0.4079   -2.1136 H       1  UNL11       0.0379
     28 H          -0.0094   -1.5815   -0.9766 H       1  UNL11       0.0379
     29 H          -3.6701   -0.2139    1.7235 H       1  UNL11       0.4829
     30 H          -0.8891    3.0343    3.3735 H       1  UNL11       0.0627
     31 H           1.3157    3.8956    2.7324 H       1  UNL11       0.0618
     32 H           2.4906    2.9317    0.7726 H       1  UNL11       0.0618
     33 H           1.4890    1.1531   -0.5140 H       1  UNL11       0.0624
     34 H           0.6029    0.8545   -3.3279 H       1  UNL11       0.0657
@<TRIPOS>BOND
     1     1     2    2
     2     1    22    1
     3     2     3    1
     4     2    23    1
     5     3     4    1
     6     4     5   ar
     7     5     6   ar
     8     5    24    1
     9     6     7   ar
    10     6    25    1
    11     7     8   ar
    12     7    26    1
    13     8     9    1
    14     8    21   ar
    15     9    10    1
    16     9    27    1
    17     9    28    1
    18    10    11    2
    19    11    12    1
    20    12    13   am
    21    12    29    1
    22    13    14    2
    23    13    15    1
    24    15    16   ar
    25    16    17   ar
    26    16    30    1
    27    17    18   ar
    28    17    31    1
    29    18    19   ar
    30    18    32    1
    31    19    20   ar
    32    19    33    1
    33    20    10    1
    34    20    15   ar
    35    21     4   ar
    36    21    34    1
@<TRIPOS>MOLECULE
*****
 34 36 0 0 0
SMALL
GASTEIGER

@<TRIPOS>ATOM
      1 N           2.1316    1.3801   -6.6249 N.2     1  UNL11      -0.2466
      2 S           2.4457    0.2569   -5.5767 S.3     1  UNL11       0.0680
      3 O           3.3096    0.8644   -4.2405 O.3     1  UNL11      -0.4186
      4 C           2.8687    0.8185   -2.9358 C.ar    1  UNL11       0.1393
      5 C           3.6009    1.3378   -1.8912 C.ar    1  UNL11      -0.0184
      6 C           3.0987    1.2572   -0.6103 C.ar    1  UNL11      -0.0580
      7 C           1.8741    0.6686   -0.3285 C.ar    1  UNL11      -0.0580
      8 C           1.1502    0.1530   -1.3772 C.ar    1  UNL11      -0.0379
      9 C          -0.1517   -0.4857   -1.1717 C.3     1  UNL11       0.0212
     10 C          -0.9011    0.0486   -0.0132 C.2     1  UNL11       0.1192
     11 N          -0.7916    1.3076    0.4325 N.2     1  UNL11      -0.0073
     12 N          -1.4882    1.7430    1.4814 N.am    1  UNL11      -0.0356
     13 C          -2.3316    0.9057    2.1234 C.2     1  UNL11       0.4383
     14 O          -3.0000    1.2954    3.1168 O.2     1  UNL11      -0.2116
     15 C          -2.4821   -0.3948    1.7085 C.ar    1  UNL11       0.1004
     16 C          -3.3447   -1.2453    2.3679 C.ar    1  UNL11      -0.0441
     17 C          -3.4739   -2.5389    1.9302 C.ar    1  UNL11      -0.0608
     18 C          -2.7530   -2.9715    0.8532 C.ar    1  UNL11      -0.0611
     19 C          -1.9020   -2.1265    0.2055 C.ar    1  UNL11      -0.0518
     20 C          -1.7584   -0.8211    0.6310 C.ar    1  UNL11       0.0192
     21 C           1.6590    0.2376   -2.6530 C.ar    1  UNL11      -0.0149
     22 H           2.4465    2.3332   -6.4443 H       1  UNL11       0.1976
     23 H           1.2597   -0.3140   -5.0965 H       1  UNL11       0.1591
     24 H           4.5730    1.8069   -2.1016 H       1  UNL11       0.0654
     25 H           3.6860    1.6717    0.2130 H       1  UNL11       0.0619
     26 H           1.5154    0.6276    0.7062 H       1  UNL11       0.0620
     27 H          -0.7602   -0.4079   -2.1136 H       1  UNL11       0.0379
     28 H          -0.0094   -1.5815   -0.9766 H       1  UNL11       0.0379
     29 H          -1.4142    2.7080    1.8351 H       1  UNL11       0.4829
     30 H          -3.9088   -0.8773    3.2242 H       1  UNL11       0.0627
     31 H          -4.1580   -3.1948    2.4618 H       1  UNL11       0.0618
     32 H          -2.8558   -3.9938    0.5082 H       1  UNL11       0.0618
     33 H          -1.3434   -2.5160   -0.6541 H       1  UNL11       0.0624
     34 H           1.0814   -0.1744   -3.4949 H       1  UNL11       0.0657
@<TRIPOS>BOND
     1     1     2    2
     2     1    22    1
     3     2     3    1
     4     2    23    1
     5     3     4    1
     6     4     5   ar
     7     5     6   ar
     8     5    24    1
     9     6     7   ar
    10     6    25    1
    11     7     8   ar
    12     7    26    1
    13     8     9    1
    14     8    21   ar
    15     9    10    1
    16     9    27    1
    17     9    28    1
    18    10    11    2
    19    11    12    1
    20    12    13   am
    21    12    29    1
    22    13    14    2
    23    13    15    1
    24    15    16   ar
    25    16    17   ar
    26    16    30    1
    27    17    18   ar
    28    17    31    1
    29    18    19   ar
    30    18    32    1
    31    19    20   ar
    32    19    33    1
    33    20    10    1
    34    20    15   ar
    35    21     4   ar
    36    21    34    1
@<TRIPOS>MOLECULE
*****
 34 36 0 0 0
SMALL
GASTEIGER

@<TRIPOS>ATOM
      1 N           6.9944   -1.5325   -3.0108 N.2     1  UNL11      -0.2466
      2 S           5.9752   -0.3440   -3.0966 S.3     1  UNL11       0.0680
      3 O           4.3853   -0.8500   -2.7540 O.3     1  UNL11      -0.4186
      4 C           3.4177   -0.0565   -2.1772 C.ar    1  UNL11       0.1393
      5 C           3.6552    1.2513   -1.8163 C.ar    1  UNL11      -0.0184
      6 C           2.6405    1.9874   -1.2435 C.ar    1  UNL11      -0.0580
      7 C           1.3782    1.4590   -1.0139 C.ar    1  UNL11      -0.0580
      8 C           1.1502    0.1530   -1.3772 C.ar    1  UNL11      -0.0379
      9 C          -0.1517   -0.4857   -1.1717 C.3     1  UNL11       0.0212
     10 C          -0.9011    0.0486   -0.0132 C.2     1  UNL11       0.1192
     11 N          -1.7583   -0.6738    0.7210 N.2     1  UNL11      -0.0073
     12 N          -2.4107   -0.1476    1.7566 N.am    1  UNL11      -0.0356
     13 C          -2.2140    1.1470    2.0882 C.2     1  UNL11       0.4383
     14 O          -2.8196    1.6655    3.0629 O.2     1  UNL11      -0.2116
     15 C          -1.3466    1.9327    1.3696 C.ar    1  UNL11       0.1004
     16 C          -1.1496    3.2539    1.7128 C.ar    1  UNL11      -0.0441
     17 C          -0.2769    4.0138    0.9761 C.ar    1  UNL11      -0.0608
     18 C           0.3851    3.4606   -0.0834 C.ar    1  UNL11      -0.0611
     19 C           0.1865    2.1543   -0.4179 C.ar    1  UNL11      -0.0518
     20 C          -0.6878    1.3736    0.3114 C.ar    1  UNL11       0.0192
     21 C           2.1688   -0.5749   -1.9485 C.ar    1  UNL11      -0.0149
     22 H           6.6554   -2.4642   -2.7714 H       1  UNL11       0.1976
     23 H           6.3120    0.6607   -2.1800 H       1  UNL11       0.1591
     24 H           4.6515    1.6817   -1.9932 H       1  UNL11       0.0654
     25 H           2.8371    3.0245   -0.9600 H       1  UNL11       0.0619
     26 H           0.6023    2.0828   -0.5556 H       1  UNL11       0.0620
     27 H          -0.7602   -0.4079   -2.1136 H       1  UNL11       0.0379
     28 H          -0.0094   -1.5815   -0.9766 H       1  UNL11       0.0379
     29 H          -3.0726   -0.6908    2.3299 H       1  UNL11       0.4829
     30 H          -1.6890    3.6726    2.5617 H       1  UNL11       0.0627
     31 H          -0.1343    5.0527    1.2609 H       1  UNL11       0.0618
     32 H           1.0744    4.0619   -0.6647 H       1  UNL11       0.0618
     33 H           0.7387    1.7518   -1.2755 H       1  UNL11       0.0624
     34 H           1.9891   -1.6212   -2.2405 H       1  UNL11       0.0657
@<TRIPOS>BOND
     1     1     2    2
     2     1    22    1
     3     2     3    1
     4     2    23    1
     5     3     4    1
     6     4     5   ar
     7     5     6   ar
     8     5    24    1
     9     6     7   ar
    10     6    25    1
    11     7     8   ar
    12     7    26    1
    13     8     9    1
    14     8    21   ar
    15     9    10    1
    16     9    27    1
    17     9    28    1
    18    10    11    2
    19    11    12    1
    20    12    13   am
    21    12    29    1
    22    13    14    2
    23    13    15    1
    24    15    16   ar
    25    16    17   ar
    26    16    30    1
    27    17    18   ar
    28    17    31    1
    29    18    19   ar
    30    18    32    1
    31    19    20   ar
    32    19    33    1
    33    20    10    1
    34    20    15   ar
    35    21     4   ar
    36    21    34    1
@<TRIPOS>MOLECULE
*****
 34 36 0 0 0
SMALL
GASTEIGER

@<TRIPOS>ATOM
      1 N           1.6439    0.9896   -6.2639 N.2     1  UNL11      -0.2466
      2 S           1.5503    2.1858   -5.2544 S.3     1  UNL11       0.0680
      3 O           2.7427    2.0837   -4.0425 O.3     1  UNL11      -0.4186
      4 C           2.5794    1.4408   -2.8348 C.ar    1  UNL11       0.1393
      5 C           3.5723    1.3992   -1.8812 C.ar    1  UNL11      -0.0184
      6 C           3.3402    0.7378   -0.6946 C.ar    1  UNL11      -0.0580
      7 C           2.1355    0.1064   -0.4198 C.ar    1  UNL11      -0.0580
      8 C           1.1502    0.1530   -1.3772 C.ar    1  UNL11      -0.0379
      9 C          -0.1517   -0.4857   -1.1717 C.3     1  UNL11       0.0212
     10 C          -0.9011    0.0486   -0.0132 C.2     1  UNL11       0.1192
     11 N          -2.1078    0.6242   -0.1037 N.2     1  UNL11      -0.0073
     12 N          -2.7442    1.0910    0.9696 N.am    1  UNL11      -0.0356
     13 C          -2.1714    0.9890    2.1886 C.2     1  UNL11       0.4383
     14 O          -2.7542    1.4231    3.2169 O.2     1  UNL11      -0.2116
     15 C          -0.9360    0.4081    2.3384 C.ar    1  UNL11       0.1004
     16 C          -0.3559    0.3066    3.5855 C.ar    1  UNL11      -0.0441
     17 C           0.8791   -0.2787    3.7036 C.ar    1  UNL11      -0.0608
     18 C           1.5199   -0.7530    2.5940 C.ar    1  UNL11      -0.0611
     19 C           0.9418   -0.6499    1.3640 C.ar    1  UNL11      -0.0518
     20 C          -0.3005   -0.0641    1.2250 C.ar    1  UNL11       0.0192
     21 C           1.3902    0.8155   -2.5592 C.ar    1  UNL11      -0.0149
     22 H           2.3654    0.2808   -6.1321 H       1  UNL11       0.1976
     23 H           1.7197    3.4067   -5.9205 H       1  UNL11       0.1591
     24 H           4.5316    1.8959   -2.0871 H       1  UNL11       0.0654
     25 H           4.1333    0.7095    0.0568 H       1  UNL11       0.0619
     26 H           1.9966   -0.4074    0.5382 H       1  UNL11       0.0620
     27 H          -0.7602   -0.4079   -2.1136 H       1  UNL11       0.0379
     28 H          -0.0094   -1.5815   -0.9766 H       1  UNL11       0.0379
     29 H          -3.6721    1.5358    0.9152 H       1  UNL11       0.4829
     30 H          -0.8863    0.6921    4.4556 H       1  UNL11       0.0627
     31 H           1.3208   -0.3500    4.6939 H       1  UNL11       0.0618
     32 H           2.4956   -1.2152    2.6884 H       1  UNL11       0.0618
     33 H           1.4917   -1.0439    0.5009 H       1  UNL11       0.0624
     34 H           0.6029    0.8545   -3.3279 H       1  UNL11       0.0657
@<TRIPOS>BOND
     1     1     2    2
     2     1    22    1
     3     2     3    1
     4     2    23    1
     5     3     4    1
     6     4     5   ar
     7     5     6   ar
     8     5    24    1
     9     6     7   ar
    10     6    25    1
    11     7     8   ar
    12     7    26    1
    13     8     9    1
    14     8    21   ar
    15     9    10    1
    16     9    27    1
    17     9    28    1
    18    10    11    2
    19    11    12    1
    20    12    13   am
    21    12    29    1
    22    13    14    2
    23    13    15    1
    24    15    16   ar
    25    16    17   ar
    26    16    30    1
    27    17    18   ar
    28    17    31    1
    29    18    19   ar
    30    18    32    1
    31    19    20   ar
    32    19    33    1
    33    20    10    1
    34    20    15   ar
    35    21     4   ar
    36    21    34    1
@<TRIPOS>MOLECULE
*****
 34 36 0 0 0
SMALL
GASTEIGER

@<TRIPOS>ATOM
      1 N           3.6585    4.6104   -5.0519 N.2     1  UNL11      -0.2466
      2 S           3.7793    3.9604   -3.6301 S.3     1  UNL11       0.0680
      3 O           2.3995    3.0426   -3.2365 O.3     1  UNL11      -0.4186
      4 C           2.4042    1.9301   -2.4234 C.ar    1  UNL11       0.1393
      5 C           3.5550    1.4476   -1.8406 C.ar    1  UNL11      -0.0184
      6 C           3.4864    0.3294   -1.0379 C.ar    1  UNL11      -0.0580
      7 C           2.2937   -0.3356   -0.7914 C.ar    1  UNL11      -0.0580
      8 C           1.1502    0.1530   -1.3772 C.ar    1  UNL11      -0.0379
      9 C          -0.1517   -0.4857   -1.1717 C.3     1  UNL11       0.0212
     10 C          -0.9011    0.0486   -0.0132 C.2     1  UNL11       0.1192
     11 N          -1.7583   -0.6738    0.7210 N.2     1  UNL11      -0.0073
     12 N          -2.4107   -0.1476    1.7566 N.am    1  UNL11      -0.0356
     13 C          -2.2140    1.1470    2.0882 C.2     1  UNL11       0.4383
     14 O          -2.8196    1.6655    3.0629 O.2     1  UNL11      -0.2116
     15 C          -1.3466    1.9327    1.3696 C.ar    1  UNL11       0.1004
     16 C          -1.1496    3.2539    1.7128 C.ar    1  UNL11      -0.0441
     17 C          -0.2769    4.0138    0.9761 C.ar    1  UNL11      -0.0608
     18 C           0.3851    3.4606   -0.0834 C.ar    1  UNL11      -0.0611
     19 C           0.1865    2.1543   -0.4179 C.ar    1  UNL11      -0.0518
     20 C          -0.6878    1.3736    0.3114 C.ar    1  UNL11       0.0192
     21 C           1.2276    1.2700   -2.1772 C.ar    1  UNL11      -0.0149
     22 H           2.8169    4.4484   -5.6048 H       1  UNL11       0.1976
     23 H           4.8910    3.1098   -3.5704 H       1  UNL11       0.1591
     24 H           4.5065    1.9658   -2.0283 H       1  UNL11       0.0654
     25 H           4.4042   -0.0472   -0.5792 H       1  UNL11       0.0619
     26 H           2.2879   -1.2213   -0.1459 H       1  UNL11       0.0620
     27 H          -0.7602   -0.4079   -2.1136 H       1  UNL11       0.0379
     28 H          -0.0094   -1.5815   -0.9766 H       1  UNL11       0.0379
     29 H          -3.0726   -0.6908    2.3299 H       1  UNL11       0.4829
     30 H          -1.6890    3.6726    2.5617 H       1  UNL11       0.0627
     31 H          -0.1343    5.0527    1.2609 H       1  UNL11       0.0618
     32 H           1.0744    4.0619   -0.6647 H       1  UNL11       0.0618
     33 H           0.7387    1.7518   -1.2755 H       1  UNL11       0.0624
     34 H           0.3133    1.6637   -2.6477 H       1  UNL11       0.0657
@<TRIPOS>BOND
     1     1     2    2
     2     1    22    1
     3     2     3    1
     4     2    23    1
     5     3     4    1
     6     4     5   ar
     7     5     6   ar
     8     5    24    1
     9     6     7   ar
    10     6    25    1
    11     7     8   ar
    12     7    26    1
    13     8     9    1
    14     8    21   ar
    15     9    10    1
    16     9    27    1
    17     9    28    1
    18    10    11    2
    19    11    12    1
    20    12    13   am
    21    12    29    1
    22    13    14    2
    23    13    15    1
    24    15    16   ar
    25    16    17   ar
    26    16    30    1
    27    17    18   ar
    28    17    31    1
    29    18    19   ar
    30    18    32    1
    31    19    20   ar
    32    19    33    1
    33    20    10    1
    34    20    15   ar
    35    21     4   ar
    36    21    34    1
@<TRIPOS>MOLECULE
*****
 34 36 0 0 0
SMALL
GASTEIGER

@<TRIPOS>ATOM
      1 N           4.5850   -3.4921   -3.3181 N.2     1  UNL11      -0.2466
      2 S           4.0737   -2.1108   -3.8559 S.3     1  UNL11       0.0680
      3 O           4.3853   -0.8500   -2.7540 O.3     1  UNL11      -0.4186
      4 C           3.4177   -0.0565   -2.1772 C.ar    1  UNL11       0.1393
      5 C           3.6552    1.2513   -1.8163 C.ar    1  UNL11      -0.0184
      6 C           2.6405    1.9874   -1.2435 C.ar    1  UNL11      -0.0580
      7 C           1.3782    1.4590   -1.0139 C.ar    1  UNL11      -0.0580
      8 C           1.1502    0.1530   -1.3772 C.ar    1  UNL11      -0.0379
      9 C          -0.1517   -0.4857   -1.1717 C.3     1  UNL11       0.0212
     10 C          -0.9011    0.0486   -0.0132 C.2     1  UNL11       0.1192
     11 N          -1.7583   -0.6738    0.7210 N.2     1  UNL11      -0.0073
     12 N          -2.4107   -0.1476    1.7566 N.am    1  UNL11      -0.0356
     13 C          -2.2140    1.1470    2.0882 C.2     1  UNL11       0.4383
     14 O          -2.8196    1.6655    3.0629 O.2     1  UNL11      -0.2116
     15 C          -1.3466    1.9327    1.3696 C.ar    1  UNL11       0.1004
     16 C          -1.1496    3.2539    1.7128 C.ar    1  UNL11      -0.0441
     17 C          -0.2769    4.0138    0.9761 C.ar    1  UNL11      -0.0608
     18 C           0.3851    3.4606   -0.0834 C.ar    1  UNL11      -0.0611
     19 C           0.1865    2.1543   -0.4179 C.ar    1  UNL11      -0.0518
     20 C          -0.6878    1.3736    0.3114 C.ar    1  UNL11       0.0192
     21 C           2.1688   -0.5749   -1.9485 C.ar    1  UNL11      -0.0149
     22 H           5.0387   -3.5353   -2.4056 H       1  UNL11       0.1976
     23 H           4.7044   -1.7891   -5.0648 H       1  UNL11       0.1591
     24 H           4.6515    1.6817   -1.9932 H       1  UNL11       0.0654
     25 H           2.8371    3.0245   -0.9600 H       1  UNL11       0.0619
     26 H           0.6023    2.0828   -0.5556 H       1  UNL11       0.0620
     27 H          -0.7602   -0.4079   -2.1136 H       1  UNL11       0.0379
     28 H          -0.0094   -1.5815   -0.9766 H       1  UNL11       0.0379
     29 H          -3.0726   -0.6908    2.3299 H       1  UNL11       0.4829
     30 H          -1.6890    3.6726    2.5617 H       1  UNL11       0.0627
     31 H          -0.1343    5.0527    1.2609 H       1  UNL11       0.0618
     32 H           1.0744    4.0619   -0.6647 H       1  UNL11       0.0618
     33 H           0.7387    1.7518   -1.2755 H       1  UNL11       0.0624
     34 H           1.9891   -1.6212   -2.2405 H       1  UNL11       0.0657
@<TRIPOS>BOND
     1     1     2    2
     2     1    22    1
     3     2     3    1
     4     2    23    1
     5     3     4    1
     6     4     5   ar
     7     5     6   ar
     8     5    24    1
     9     6     7   ar
    10     6    25    1
    11     7     8   ar
    12     7    26    1
    13     8     9    1
    14     8    21   ar
    15     9    10    1
    16     9    27    1
    17     9    28    1
    18    10    11    2
    19    11    12    1
    20    12    13   am
    21    12    29    1
    22    13    14    2
    23    13    15    1
    24    15    16   ar
    25    16    17   ar
    26    16    30    1
    27    17    18   ar
    28    17    31    1
    29    18    19   ar
    30    18    32    1
    31    19    20   ar
    32    19    33    1
    33    20    10    1
    34    20    15   ar
    35    21     4   ar
    36    21    34    1
@<TRIPOS>MOLECULE
*****
 34 36 0 0 0
SMALL
GASTEIGER

@<TRIPOS>ATOM
      1 N           3.1983    5.4578   -4.1681 N.2     1  UNL11      -0.2466
      2 S           3.4875    4.3460   -3.1008 S.3     1  UNL11       0.0680
      3 O           2.3995    3.0426   -3.2365 O.3     1  UNL11      -0.4186
      4 C           2.4042    1.9301   -2.4234 C.ar    1  UNL11       0.1393
      5 C           3.5550    1.4476   -1.8406 C.ar    1  UNL11      -0.0184
      6 C           3.4864    0.3294   -1.0379 C.ar    1  UNL11      -0.0580
      7 C           2.2937   -0.3356   -0.7914 C.ar    1  UNL11      -0.0580
      8 C           1.1502    0.1530   -1.3772 C.ar    1  UNL11      -0.0379
      9 C          -0.1517   -0.4857   -1.1717 C.3     1  UNL11       0.0212
     10 C          -0.9011    0.0486   -0.0132 C.2     1  UNL11       0.1192
     11 N          -0.4475    1.0240    0.7858 N.2     1  UNL11      -0.0073
     12 N          -1.1600    1.4725    1.8185 N.am    1  UNL11      -0.0356
     13 C          -2.3735    0.9402    2.0804 C.2     1  UNL11       0.4383
     14 O          -3.0643    1.3483    3.0508 O.2     1  UNL11      -0.2116
     15 C          -2.8863   -0.0617    1.2935 C.ar    1  UNL11       0.1004
     16 C          -4.1259   -0.6015    1.5656 C.ar    1  UNL11      -0.0441
     17 C          -4.6117   -1.6012    0.7617 C.ar    1  UNL11      -0.0608
     18 C          -3.8699   -2.0511   -0.2938 C.ar    1  UNL11      -0.0611
     19 C          -2.6454   -1.5140   -0.5579 C.ar    1  UNL11      -0.0518
     20 C          -2.1395   -0.5071    0.2397 C.ar    1  UNL11       0.0192
     21 C           1.2276    1.2700   -2.1772 C.ar    1  UNL11      -0.0149
     22 H           2.4290    5.3303   -4.8255 H       1  UNL11       0.1976
     23 H           4.7845    3.8394   -3.2565 H       1  UNL11       0.1591
     24 H           4.5065    1.9658   -2.0283 H       1  UNL11       0.0654
     25 H           4.4042   -0.0472   -0.5792 H       1  UNL11       0.0619
     26 H           2.2879   -1.2213   -0.1459 H       1  UNL11       0.0620
     27 H          -0.7602   -0.4079   -2.1136 H       1  UNL11       0.0379
     28 H          -0.0094   -1.5815   -0.9766 H       1  UNL11       0.0379
     29 H          -0.8240    2.2217    2.4412 H       1  UNL11       0.4829
     30 H          -4.6988   -0.2262    2.4129 H       1  UNL11       0.0627
     31 H          -5.5901   -2.0146    0.9911 H       1  UNL11       0.0618
     32 H          -4.2546   -2.8410   -0.9283 H       1  UNL11       0.0618
     33 H          -2.0844   -1.9053   -1.4151 H       1  UNL11       0.0624
     34 H           0.3133    1.6637   -2.6477 H       1  UNL11       0.0657
@<TRIPOS>BOND
     1     1     2    2
     2     1    22    1
     3     2     3    1
     4     2    23    1
     5     3     4    1
     6     4     5   ar
     7     5     6   ar
     8     5    24    1
     9     6     7   ar
    10     6    25    1
    11     7     8   ar
    12     7    26    1
    13     8     9    1
    14     8    21   ar
    15     9    10    1
    16     9    27    1
    17     9    28    1
    18    10    11    2
    19    11    12    1
    20    12    13   am
    21    12    29    1
    22    13    14    2
    23    13    15    1
    24    15    16   ar
    25    16    17   ar
    26    16    30    1
    27    17    18   ar
    28    17    31    1
    29    18    19   ar
    30    18    32    1
    31    19    20   ar
    32    19    33    1
    33    20    10    1
    34    20    15   ar
    35    21     4   ar
    36    21    34    1
@<TRIPOS>MOLECULE
*****
 34 36 0 0 0
SMALL
GASTEIGER

@<TRIPOS>ATOM
      1 N           3.2230    6.1067   -1.9951 N.2     1  UNL11      -0.2466
      2 S           3.5834    4.6295   -1.6119 S.3     1  UNL11       0.0680
      3 O           2.3416    3.5454   -2.0404 O.3     1  UNL11      -0.4186
      4 C           2.3747    2.1868   -1.8130 C.ar    1  UNL11       0.1393
      5 C           3.5521    1.4729   -1.7803 C.ar    1  UNL11      -0.0184
      6 C           3.5111    0.1152   -1.5474 C.ar    1  UNL11      -0.0580
      7 C           2.3204   -0.5675   -1.3428 C.ar    1  UNL11      -0.0580
      8 C           1.1502    0.1530   -1.3772 C.ar    1  UNL11      -0.0379
      9 C          -0.1517   -0.4857   -1.1717 C.3     1  UNL11       0.0212
     10 C          -0.9011    0.0486   -0.0132 C.2     1  UNL11       0.1192
     11 N          -1.7583   -0.6738    0.7210 N.2     1  UNL11      -0.0073
     12 N          -2.4107   -0.1476    1.7566 N.am    1  UNL11      -0.0356
     13 C          -2.2140    1.1470    2.0882 C.2     1  UNL11       0.4383
     14 O          -2.8196    1.6655    3.0629 O.2     1  UNL11      -0.2116
     15 C          -1.3466    1.9327    1.3696 C.ar    1  UNL11       0.1004
     16 C          -1.1496    3.2539    1.7128 C.ar    1  UNL11      -0.0441
     17 C          -0.2769    4.0138    0.9761 C.ar    1  UNL11      -0.0608
     18 C           0.3851    3.4606   -0.0834 C.ar    1  UNL11      -0.0611
     19 C           0.1865    2.1543   -0.4179 C.ar    1  UNL11      -0.0518
     20 C          -0.6878    1.3736    0.3114 C.ar    1  UNL11       0.0192
     21 C           1.2001    1.5083   -1.6103 C.ar    1  UNL11      -0.0149
     22 H           2.3284    6.3014   -2.4447 H       1  UNL11       0.1976
     23 H           4.7529    4.2222   -2.2672 H       1  UNL11       0.1591
     24 H           4.5023    2.0025   -1.9409 H       1  UNL11       0.0654
     25 H           4.4498   -0.4440   -1.5231 H       1  UNL11       0.0619
     26 H           2.3371   -1.6481   -1.1612 H       1  UNL11       0.0620
     27 H          -0.7602   -0.4079   -2.1136 H       1  UNL11       0.0379
     28 H          -0.0094   -1.5815   -0.9766 H       1  UNL11       0.0379
     29 H          -3.0726   -0.6908    2.3299 H       1  UNL11       0.4829
     30 H          -1.6890    3.6726    2.5617 H       1  UNL11       0.0627
     31 H          -0.1343    5.0527    1.2609 H       1  UNL11       0.0618
     32 H           1.0744    4.0619   -0.6647 H       1  UNL11       0.0618
     33 H           0.7387    1.7518   -1.2755 H       1  UNL11       0.0624
     34 H           0.2645    2.0880   -1.6383 H       1  UNL11       0.0657
@<TRIPOS>BOND
     1     1     2    2
     2     1    22    1
     3     2     3    1
     4     2    23    1
     5     3     4    1
     6     4     5   ar
     7     5     6   ar
     8     5    24    1
     9     6     7   ar
    10     6    25    1
    11     7     8   ar
    12     7    26    1
    13     8     9    1
    14     8    21   ar
    15     9    10    1
    16     9    27    1
    17     9    28    1
    18    10    11    2
    19    11    12    1
    20    12    13   am
    21    12    29    1
    22    13    14    2
    23    13    15    1
    24    15    16   ar
    25    16    17   ar
    26    16    30    1
    27    17    18   ar
    28    17    31    1
    29    18    19   ar
    30    18    32    1
    31    19    20   ar
    32    19    33    1
    33    20    10    1
    34    20    15   ar
    35    21     4   ar
    36    21    34    1
@<TRIPOS>MOLECULE
*****
 34 36 0 0 0
SMALL
GASTEIGER

@<TRIPOS>ATOM
      1 N           4.3591    2.8529   -6.0758 N.2     1  UNL11      -0.2466
      2 S           4.1588    2.9000   -4.5214 S.3     1  UNL11       0.0680
      3 O           2.7427    2.0837   -4.0425 O.3     1  UNL11      -0.4186
      4 C           2.5794    1.4408   -2.8348 C.ar    1  UNL11       0.1393
      5 C           3.5723    1.3992   -1.8812 C.ar    1  UNL11      -0.0184
      6 C           3.3402    0.7378   -0.6946 C.ar    1  UNL11      -0.0580
      7 C           2.1355    0.1064   -0.4198 C.ar    1  UNL11      -0.0580
      8 C           1.1502    0.1530   -1.3772 C.ar    1  UNL11      -0.0379
      9 C          -0.1517   -0.4857   -1.1717 C.3     1  UNL11       0.0212
     10 C          -0.9011    0.0486   -0.0132 C.2     1  UNL11       0.1192
     11 N          -0.7916    1.3076    0.4325 N.2     1  UNL11      -0.0073
     12 N          -1.4882    1.7430    1.4814 N.am    1  UNL11      -0.0356
     13 C          -2.3316    0.9057    2.1234 C.2     1  UNL11       0.4383
     14 O          -3.0000    1.2954    3.1168 O.2     1  UNL11      -0.2116
     15 C          -2.4821   -0.3948    1.7085 C.ar    1  UNL11       0.1004
     16 C          -3.3447   -1.2453    2.3679 C.ar    1  UNL11      -0.0441
     17 C          -3.4739   -2.5389    1.9302 C.ar    1  UNL11      -0.0608
     18 C          -2.7530   -2.9715    0.8532 C.ar    1  UNL11      -0.0611
     19 C          -1.9020   -2.1265    0.2055 C.ar    1  UNL11      -0.0518
     20 C          -1.7584   -0.8211    0.6310 C.ar    1  UNL11       0.0192
     21 C           1.3902    0.8155   -2.5592 C.ar    1  UNL11      -0.0149
     22 H           3.6719    2.3682   -6.6530 H       1  UNL11       0.1976
     23 H           5.2419    2.2990   -3.8668 H       1  UNL11       0.1591
     24 H           4.5316    1.8959   -2.0871 H       1  UNL11       0.0654
     25 H           4.1333    0.7095    0.0568 H       1  UNL11       0.0619
     26 H           1.9966   -0.4074    0.5382 H       1  UNL11       0.0620
     27 H          -0.7602   -0.4079   -2.1136 H       1  UNL11       0.0379
     28 H          -0.0094   -1.5815   -0.9766 H       1  UNL11       0.0379
     29 H          -1.4142    2.7080    1.8351 H       1  UNL11       0.4829
     30 H          -3.9088   -0.8773    3.2242 H       1  UNL11       0.0627
     31 H          -4.1580   -3.1948    2.4618 H       1  UNL11       0.0618
     32 H          -2.8558   -3.9938    0.5082 H       1  UNL11       0.0618
     33 H          -1.3434   -2.5160   -0.6541 H       1  UNL11       0.0624
     34 H           0.6029    0.8545   -3.3279 H       1  UNL11       0.0657
@<TRIPOS>BOND
     1     1     2    2
     2     1    22    1
     3     2     3    1
     4     2    23    1
     5     3     4    1
     6     4     5   ar
     7     5     6   ar
     8     5    24    1
     9     6     7   ar
    10     6    25    1
    11     7     8   ar
    12     7    26    1
    13     8     9    1
    14     8    21   ar
    15     9    10    1
    16     9    27    1
    17     9    28    1
    18    10    11    2
    19    11    12    1
    20    12    13   am
    21    12    29    1
    22    13    14    2
    23    13    15    1
    24    15    16   ar
    25    16    17   ar
    26    16    30    1
    27    17    18   ar
    28    17    31    1
    29    18    19   ar
    30    18    32    1
    31    19    20   ar
    32    19    33    1
    33    20    10    1
    34    20    15   ar
    35    21     4   ar
    36    21    34    1
@<TRIPOS>MOLECULE
*****
 34 36 0 0 0
SMALL
GASTEIGER

@<TRIPOS>ATOM
      1 N           0.8209    1.8193   -5.9335 N.2     1  UNL11      -0.2466
      2 S           1.4859    2.8197   -4.9257 S.3     1  UNL11       0.0680
      3 O           2.7427    2.0837   -4.0425 O.3     1  UNL11      -0.4186
      4 C           2.5794    1.4408   -2.8348 C.ar    1  UNL11       0.1393
      5 C           3.5723    1.3992   -1.8812 C.ar    1  UNL11      -0.0184
      6 C           3.3402    0.7378   -0.6946 C.ar    1  UNL11      -0.0580
      7 C           2.1355    0.1064   -0.4198 C.ar    1  UNL11      -0.0580
      8 C           1.1502    0.1530   -1.3772 C.ar    1  UNL11      -0.0379
      9 C          -0.1517   -0.4857   -1.1717 C.3     1  UNL11       0.0212
     10 C          -0.9011    0.0486   -0.0132 C.2     1  UNL11       0.1192
     11 N          -0.8100   -0.4454    1.2291 N.2     1  UNL11      -0.0073
     12 N          -1.5058    0.0703    2.2414 N.am    1  UNL11      -0.0356
     13 C          -2.3294    1.1191    2.0264 C.2     1  UNL11       0.4383
     14 O          -2.9967    1.6228    2.9680 O.2     1  UNL11      -0.2116
     15 C          -2.4606    1.6644    0.7728 C.ar    1  UNL11       0.1004
     16 C          -3.3030    2.7352    0.5590 C.ar    1  UNL11      -0.0441
     17 C          -3.4132    3.2584   -0.7043 C.ar    1  UNL11      -0.0608
     18 C          -2.6934    2.7191   -1.7328 C.ar    1  UNL11      -0.0611
     19 C          -1.8624    1.6608   -1.5157 C.ar    1  UNL11      -0.0518
     20 C          -1.7382    1.1205   -0.2514 C.ar    1  UNL11       0.0192
     21 C           1.3902    0.8155   -2.5592 C.ar    1  UNL11      -0.0149
     22 H           1.1655    0.8607   -5.9857 H       1  UNL11       0.1976
     23 H           2.0270    3.9180   -5.6068 H       1  UNL11       0.1591
     24 H           4.5316    1.8959   -2.0871 H       1  UNL11       0.0654
     25 H           4.1333    0.7095    0.0568 H       1  UNL11       0.0619
     26 H           1.9966   -0.4074    0.5382 H       1  UNL11       0.0620
     27 H          -0.7602   -0.4079   -2.1136 H       1  UNL11       0.0379
     28 H          -0.0094   -1.5815   -0.9766 H       1  UNL11       0.0379
     29 H          -1.4458   -0.2990    3.2016 H       1  UNL11       0.4829
     30 H          -3.8667    3.1481    1.3949 H       1  UNL11       0.0627
     31 H          -4.0817    4.1019   -0.8541 H       1  UNL11       0.0618
     32 H          -2.7812    3.1333   -2.7305 H       1  UNL11       0.0618
     33 H          -1.3039    1.2598   -2.3699 H       1  UNL11       0.0624
     34 H           0.6029    0.8545   -3.3279 H       1  UNL11       0.0657
@<TRIPOS>BOND
     1     1     2    2
     2     1    22    1
     3     2     3    1
     4     2    23    1
     5     3     4    1
     6     4     5   ar
     7     5     6   ar
     8     5    24    1
     9     6     7   ar
    10     6    25    1
    11     7     8   ar
    12     7    26    1
    13     8     9    1
    14     8    21   ar
    15     9    10    1
    16     9    27    1
    17     9    28    1
    18    10    11    2
    19    11    12    1
    20    12    13   am
    21    12    29    1
    22    13    14    2
    23    13    15    1
    24    15    16   ar
    25    16    17   ar
    26    16    30    1
    27    17    18   ar
    28    17    31    1
    29    18    19   ar
    30    18    32    1
    31    19    20   ar
    32    19    33    1
    33    20    10    1
    34    20    15   ar
    35    21     4   ar
    36    21    34    1
@<TRIPOS>MOLECULE
*****
 34 36 0 0 0
SMALL
GASTEIGER

@<TRIPOS>ATOM
      1 N           3.1128    0.9748   -6.9401 N.2     1  UNL11      -0.2466
      2 S           2.2928    0.9568   -5.6037 S.3     1  UNL11       0.0680
      3 O           3.3096    0.8644   -4.2405 O.3     1  UNL11      -0.4186
      4 C           2.8687    0.8185   -2.9358 C.ar    1  UNL11       0.1393
      5 C           3.6009    1.3378   -1.8912 C.ar    1  UNL11      -0.0184
      6 C           3.0987    1.2572   -0.6103 C.ar    1  UNL11      -0.0580
      7 C           1.8741    0.6686   -0.3285 C.ar    1  UNL11      -0.0580
      8 C           1.1502    0.1530   -1.3772 C.ar    1  UNL11      -0.0379
      9 C          -0.1517   -0.4857   -1.1717 C.3     1  UNL11       0.0212
     10 C          -0.9011    0.0486   -0.0132 C.2     1  UNL11       0.1192
     11 N          -2.1066   -0.3958    0.3675 N.2     1  UNL11      -0.0073
     12 N          -2.7431    0.1177    1.4193 N.am    1  UNL11      -0.0356
     13 C          -2.1715    1.1131    2.1313 C.2     1  UNL11       0.4383
     14 O          -2.7545    1.6136    3.1289 O.2     1  UNL11      -0.2116
     15 C          -0.9374    1.6062    1.7849 C.ar    1  UNL11       0.1004
     16 C          -0.3587    2.6227    2.5155 C.ar    1  UNL11      -0.0441
     17 C           0.8750    3.0945    2.1453 C.ar    1  UNL11      -0.0608
     18 C           1.5159    2.5582    1.0643 C.ar    1  UNL11      -0.0611
     19 C           0.9391    1.5538    0.3459 C.ar    1  UNL11      -0.0518
     20 C          -0.3019    1.0657    0.7030 C.ar    1  UNL11       0.0192
     21 C           1.6590    0.2376   -2.6530 C.ar    1  UNL11      -0.0149
     22 H           4.1312    0.9326   -6.9013 H       1  UNL11       0.1976
     23 H           1.5205    2.1197   -5.4842 H       1  UNL11       0.1591
     24 H           4.5730    1.8069   -2.1016 H       1  UNL11       0.0654
     25 H           3.6860    1.6717    0.2130 H       1  UNL11       0.0619
     26 H           1.5154    0.6276    0.7062 H       1  UNL11       0.0620
     27 H          -0.7602   -0.4079   -2.1136 H       1  UNL11       0.0379
     28 H          -0.0094   -1.5815   -0.9766 H       1  UNL11       0.0379
     29 H          -3.6701   -0.2139    1.7235 H       1  UNL11       0.4829
     30 H          -0.8891    3.0343    3.3735 H       1  UNL11       0.0627
     31 H           1.3157    3.8956    2.7324 H       1  UNL11       0.0618
     32 H           2.4906    2.9317    0.7726 H       1  UNL11       0.0618
     33 H           1.4890    1.1531   -0.5140 H       1  UNL11       0.0624
     34 H           1.0814   -0.1744   -3.4949 H       1  UNL11       0.0657
@<TRIPOS>BOND
     1     1     2    2
     2     1    22    1
     3     2     3    1
     4     2    23    1
     5     3     4    1
     6     4     5   ar
     7     5     6   ar
     8     5    24    1
     9     6     7   ar
    10     6    25    1
    11     7     8   ar
    12     7    26    1
    13     8     9    1
    14     8    21   ar
    15     9    10    1
    16     9    27    1
    17     9    28    1
    18    10    11    2
    19    11    12    1
    20    12    13   am
    21    12    29    1
    22    13    14    2
    23    13    15    1
    24    15    16   ar
    25    16    17   ar
    26    16    30    1
    27    17    18   ar
    28    17    31    1
    29    18    19   ar
    30    18    32    1
    31    19    20   ar
    32    19    33    1
    33    20    10    1
    34    20    15   ar
    35    21     4   ar
    36    21    34    1
@<TRIPOS>MOLECULE
*****
 34 36 0 0 0
SMALL
GASTEIGER

@<TRIPOS>ATOM
      1 N           4.7834    3.8945   -0.9203 N.2     1  UNL11      -0.2466
      2 S           3.5834    4.6295   -1.6119 S.3     1  UNL11       0.0680
      3 O           2.3416    3.5454   -2.0404 O.3     1  UNL11      -0.4186
      4 C           2.3747    2.1868   -1.8130 C.ar    1  UNL11       0.1393
      5 C           3.5521    1.4729   -1.7803 C.ar    1  UNL11      -0.0184
      6 C           3.5111    0.1152   -1.5474 C.ar    1  UNL11      -0.0580
      7 C           2.3204   -0.5675   -1.3428 C.ar    1  UNL11      -0.0580
      8 C           1.1502    0.1530   -1.3772 C.ar    1  UNL11      -0.0379
      9 C          -0.1517   -0.4857   -1.1717 C.3     1  UNL11       0.0212
     10 C          -0.9011    0.0486   -0.0132 C.2     1  UNL11       0.1192
     11 N          -0.8100   -0.4454    1.2291 N.2     1  UNL11      -0.0073
     12 N          -1.5058    0.0703    2.2414 N.am    1  UNL11      -0.0356
     13 C          -2.3294    1.1191    2.0264 C.2     1  UNL11       0.4383
     14 O          -2.9967    1.6228    2.9680 O.2     1  UNL11      -0.2116
     15 C          -2.4606    1.6644    0.7728 C.ar    1  UNL11       0.1004
     16 C          -3.3030    2.7352    0.5590 C.ar    1  UNL11      -0.0441
     17 C          -3.4132    3.2584   -0.7043 C.ar    1  UNL11      -0.0608
     18 C          -2.6934    2.7191   -1.7328 C.ar    1  UNL11      -0.0611
     19 C          -1.8624    1.6608   -1.5157 C.ar    1  UNL11      -0.0518
     20 C          -1.7382    1.1205   -0.2514 C.ar    1  UNL11       0.0192
     21 C           1.2001    1.5083   -1.6103 C.ar    1  UNL11      -0.0149
     22 H           4.7386    2.8846   -0.7847 H       1  UNL11       0.1976
     23 H           3.0350    5.5918   -0.7539 H       1  UNL11       0.1591
     24 H           4.5023    2.0025   -1.9409 H       1  UNL11       0.0654
     25 H           4.4498   -0.4440   -1.5231 H       1  UNL11       0.0619
     26 H           2.3371   -1.6481   -1.1612 H       1  UNL11       0.0620
     27 H          -0.7602   -0.4079   -2.1136 H       1  UNL11       0.0379
     28 H          -0.0094   -1.5815   -0.9766 H       1  UNL11       0.0379
     29 H          -1.4458   -0.2990    3.2016 H       1  UNL11       0.4829
     30 H          -3.8667    3.1481    1.3949 H       1  UNL11       0.0627
     31 H          -4.0817    4.1019   -0.8541 H       1  UNL11       0.0618
     32 H          -2.7812    3.1333   -2.7305 H       1  UNL11       0.0618
     33 H          -1.3039    1.2598   -2.3699 H       1  UNL11       0.0624
     34 H           0.2645    2.0880   -1.6383 H       1  UNL11       0.0657
@<TRIPOS>BOND
     1     1     2    2
     2     1    22    1
     3     2     3    1
     4     2    23    1
     5     3     4    1
     6     4     5   ar
     7     5     6   ar
     8     5    24    1
     9     6     7   ar
    10     6    25    1
    11     7     8   ar
    12     7    26    1
    13     8     9    1
    14     8    21   ar
    15     9    10    1
    16     9    27    1
    17     9    28    1
    18    10    11    2
    19    11    12    1
    20    12    13   am
    21    12    29    1
    22    13    14    2
    23    13    15    1
    24    15    16   ar
    25    16    17   ar
    26    16    30    1
    27    17    18   ar
    28    17    31    1
    29    18    19   ar
    30    18    32    1
    31    19    20   ar
    32    19    33    1
    33    20    10    1
    34    20    15   ar
    35    21     4   ar
    36    21    34    1
@<TRIPOS>MOLECULE
*****
 34 36 0 0 0
SMALL
GASTEIGER

@<TRIPOS>ATOM
      1 N           3.8660    4.6092   -0.0697 N.2     1  UNL11      -0.2466
      2 S           3.5834    4.6295   -1.6119 S.3     1  UNL11       0.0680
      3 O           2.3416    3.5454   -2.0404 O.3     1  UNL11      -0.4186
      4 C           2.3747    2.1868   -1.8130 C.ar    1  UNL11       0.1393
      5 C           3.5521    1.4729   -1.7803 C.ar    1  UNL11      -0.0184
      6 C           3.5111    0.1152   -1.5474 C.ar    1  UNL11      -0.0580
      7 C           2.3204   -0.5675   -1.3428 C.ar    1  UNL11      -0.0580
      8 C           1.1502    0.1530   -1.3772 C.ar    1  UNL11      -0.0379
      9 C          -0.1517   -0.4857   -1.1717 C.3     1  UNL11       0.0212
     10 C          -0.9011    0.0486   -0.0132 C.2     1  UNL11       0.1192
     11 N          -0.4463    0.0256    1.2471 N.2     1  UNL11      -0.0073
     12 N          -1.1588    0.5198    2.2586 N.am    1  UNL11      -0.0356
     13 C          -2.3737    1.0618    2.0242 C.2     1  UNL11       0.4383
     14 O          -3.0646    1.5348    2.9646 O.2     1  UNL11      -0.2116
     15 C          -2.8877    1.1111    0.7517 C.ar    1  UNL11       0.1004
     16 C          -4.1287    1.6657    0.5182 C.ar    1  UNL11      -0.0441
     17 C          -4.6157    1.7008   -0.7637 C.ar    1  UNL11      -0.0608
     18 C          -3.8738    1.1901   -1.7912 C.ar    1  UNL11      -0.0611
     19 C          -2.6480    0.6432   -1.5545 C.ar    1  UNL11      -0.0518
     20 C          -2.1409    0.5988   -0.2713 C.ar    1  UNL11       0.0192
     21 C           1.2001    1.5083   -1.6103 C.ar    1  UNL11      -0.0149
     22 H           3.3216    3.9884    0.5291 H       1  UNL11       0.1976
     23 H           3.1948    5.9109   -2.0244 H       1  UNL11       0.1591
     24 H           4.5023    2.0025   -1.9409 H       1  UNL11       0.0654
     25 H           4.4498   -0.4440   -1.5231 H       1  UNL11       0.0619
     26 H           2.3371   -1.6481   -1.1612 H       1  UNL11       0.0620
     27 H          -0.7602   -0.4079   -2.1136 H       1  UNL11       0.0379
     28 H          -0.0094   -1.5815   -0.9766 H       1  UNL11       0.0379
     29 H          -0.8220    0.5089    3.2324 H       1  UNL11       0.4829
     30 H          -4.7016    2.0665    1.3537 H       1  UNL11       0.0627
     31 H          -5.5952    2.1414   -0.9289 H       1  UNL11       0.0618
     32 H          -4.2595    1.2183   -2.8036 H       1  UNL11       0.0618
     33 H          -2.0871    0.2453   -2.4086 H       1  UNL11       0.0624
     34 H           0.2645    2.0880   -1.6383 H       1  UNL11       0.0657
@<TRIPOS>BOND
     1     1     2    2
     2     1    22    1
     3     2     3    1
     4     2    23    1
     5     3     4    1
     6     4     5   ar
     7     5     6   ar
     8     5    24    1
     9     6     7   ar
    10     6    25    1
    11     7     8   ar
    12     7    26    1
    13     8     9    1
    14     8    21   ar
    15     9    10    1
    16     9    27    1
    17     9    28    1
    18    10    11    2
    19    11    12    1
    20    12    13   am
    21    12    29    1
    22    13    14    2
    23    13    15    1
    24    15    16   ar
    25    16    17   ar
    26    16    30    1
    27    17    18   ar
    28    17    31    1
    29    18    19   ar
    30    18    32    1
    31    19    20   ar
    32    19    33    1
    33    20    10    1
    34    20    15   ar
    35    21     4   ar
    36    21    34    1
@<TRIPOS>MOLECULE
*****
 34 36 0 0 0
SMALL
GASTEIGER

@<TRIPOS>ATOM
      1 N           2.0017    4.0418   -5.7617 N.2     1  UNL11      -0.2466
      2 S           1.4859    2.8197   -4.9257 S.3     1  UNL11       0.0680
      3 O           2.7427    2.0837   -4.0425 O.3     1  UNL11      -0.4186
      4 C           2.5794    1.4408   -2.8348 C.ar    1  UNL11       0.1393
      5 C           3.5723    1.3992   -1.8812 C.ar    1  UNL11      -0.0184
      6 C           3.3402    0.7378   -0.6946 C.ar    1  UNL11      -0.0580
      7 C           2.1355    0.1064   -0.4198 C.ar    1  UNL11      -0.0580
      8 C           1.1502    0.1530   -1.3772 C.ar    1  UNL11      -0.0379
      9 C          -0.1517   -0.4857   -1.1717 C.3     1  UNL11       0.0212
     10 C          -0.9011    0.0486   -0.0132 C.2     1  UNL11       0.1192
     11 N          -2.1066   -0.3958    0.3675 N.2     1  UNL11      -0.0073
     12 N          -2.7431    0.1177    1.4193 N.am    1  UNL11      -0.0356
     13 C          -2.1715    1.1131    2.1313 C.2     1  UNL11       0.4383
     14 O          -2.7545    1.6136    3.1289 O.2     1  UNL11      -0.2116
     15 C          -0.9374    1.6062    1.7849 C.ar    1  UNL11       0.1004
     16 C          -0.3587    2.6227    2.5155 C.ar    1  UNL11      -0.0441
     17 C           0.8750    3.0945    2.1453 C.ar    1  UNL11      -0.0608
     18 C           1.5159    2.5582    1.0643 C.ar    1  UNL11      -0.0611
     19 C           0.9391    1.5538    0.3459 C.ar    1  UNL11      -0.0518
     20 C          -0.3019    1.0657    0.7030 C.ar    1  UNL11       0.0192
     21 C           1.3902    0.8155   -2.5592 C.ar    1  UNL11      -0.0149
     22 H           2.9892    4.2935   -5.7204 H       1  UNL11       0.1976
     23 H           0.5028    3.2264   -4.0140 H       1  UNL11       0.1591
     24 H           4.5316    1.8959   -2.0871 H       1  UNL11       0.0654
     25 H           4.1333    0.7095    0.0568 H       1  UNL11       0.0619
     26 H           1.9966   -0.4074    0.5382 H       1  UNL11       0.0620
     27 H          -0.7602   -0.4079   -2.1136 H       1  UNL11       0.0379
     28 H          -0.0094   -1.5815   -0.9766 H       1  UNL11       0.0379
     29 H          -3.6701   -0.2139    1.7235 H       1  UNL11       0.4829
     30 H          -0.8891    3.0343    3.3735 H       1  UNL11       0.0627
     31 H           1.3157    3.8956    2.7324 H       1  UNL11       0.0618
     32 H           2.4906    2.9317    0.7726 H       1  UNL11       0.0618
     33 H           1.4890    1.1531   -0.5140 H       1  UNL11       0.0624
     34 H           0.6029    0.8545   -3.3279 H       1  UNL11       0.0657
@<TRIPOS>BOND
     1     1     2    2
     2     1    22    1
     3     2     3    1
     4     2    23    1
     5     3     4    1
     6     4     5   ar
     7     5     6   ar
     8     5    24    1
     9     6     7   ar
    10     6    25    1
    11     7     8   ar
    12     7    26    1
    13     8     9    1
    14     8    21   ar
    15     9    10    1
    16     9    27    1
    17     9    28    1
    18    10    11    2
    19    11    12    1
    20    12    13   am
    21    12    29    1
    22    13    14    2
    23    13    15    1
    24    15    16   ar
    25    16    17   ar
    26    16    30    1
    27    17    18   ar
    28    17    31    1
    29    18    19   ar
    30    18    32    1
    31    19    20   ar
    32    19    33    1
    33    20    10    1
    34    20    15   ar
    35    21     4   ar
    36    21    34    1
