@<TRIPOS>MOLECULE
*****
 41 43 0 0 0
SMALL
GASTEIGER

@<TRIPOS>ATOM
      1 O           3.1007   -3.6135   -1.0613 O.2     1  UNL11      -0.2702
      2 C           2.3401   -2.9815   -1.8607 C.2     1  UNL11       0.2441
      3 N           1.5243   -1.9454   -1.3625 N.am    1  UNL11      -0.3099
      4 C           1.5112   -1.5560    0.0551 C.3     1  UNL11       0.0275
      5 C           0.5420   -0.4344    0.3316 C.3     1  UNL11       0.0275
      6 N          -0.7711   -0.8722   -0.0166 N.am    1  UNL11      -0.3084
      7 C          -0.9417   -2.2144   -0.5346 C.2     1  UNL11       0.2688
      8 O          -2.1105   -2.4880   -0.8152 O.2     1  UNL11      -0.2683
      9 C           0.2510   -3.0274   -0.6486 C.2     1  UNL11       0.1988
     10 N           0.3335   -3.9820   -1.6327 N.2     1  UNL11       0.0021
     11 N           1.3835   -4.7582   -1.7989 N.am    1  UNL11      -0.0351
     12 C           2.4718   -4.6837   -1.0160 C.2     1  UNL11       0.4383
     13 O           3.4732   -5.4335   -1.1848 O.2     1  UNL11      -0.2116
     14 C           2.4783   -3.7507    0.0021 C.ar    1  UNL11       0.1009
     15 C           3.5888   -3.6548    0.8225 C.ar    1  UNL11      -0.0441
     16 C           3.6030   -2.7324    1.8340 C.ar    1  UNL11      -0.0608
     17 C           2.5022   -1.9256    2.0006 C.ar    1  UNL11      -0.0611
     18 C           1.3815   -2.0095    1.1865 C.ar    1  UNL11      -0.0513
     19 C           1.3496   -2.9302    0.1656 C.ar    1  UNL11       0.0282
     20 C           2.3274   -3.3365   -3.2560 C.ar    1  UNL11       0.0369
     21 C           2.6052   -4.6617   -3.6186 C.ar    1  UNL11      -0.0469
     22 C           2.6124   -5.0817   -4.9301 C.ar    1  UNL11      -0.0257
     23 C           2.3442   -4.2077   -5.9456 C.ar    1  UNL11       0.1234
     24 F           2.3545   -4.6342   -7.2321 F       1  UNL11      -0.2055
     25 C           2.0689   -2.9025   -5.6122 C.ar    1  UNL11      -0.0257
     26 C           2.0611   -2.4744   -4.2836 C.ar    1  UNL11      -0.0469
     27 H           0.9072   -1.4387   -2.0358 H       1  UNL11       0.1491
     28 H           2.5313   -1.3306    0.3616 H       1  UNL11       0.0477
     29 H           1.2205   -2.4952    0.5958 H       1  UNL11       0.0477
     30 H           0.6464   -0.1608    1.4030 H       1  UNL11       0.0477
     31 H           0.8041    0.4079   -0.3416 H       1  UNL11       0.0477
     32 H          -1.5958   -0.2390    0.0987 H       1  UNL11       0.1491
     33 H           1.4138   -5.4765   -2.5599 H       1  UNL11       0.4829
     34 H           4.4342   -4.3339    0.6298 H       1  UNL11       0.0627
     35 H           4.4763   -2.6434    2.4939 H       1  UNL11       0.0618
     36 H           2.5056   -1.1972    2.7942 H       1  UNL11       0.0618
     37 H           0.5422   -1.3669    1.3434 H       1  UNL11       0.0624
     38 H           2.8244   -5.3885   -2.8315 H       1  UNL11       0.0626
     39 H           2.8365   -6.1293   -5.1508 H       1  UNL11       0.0646
     40 H           1.8543   -2.2026   -6.4232 H       1  UNL11       0.0646
     41 H           1.8399   -1.4438   -4.0712 H       1  UNL11       0.0626
@<TRIPOS>BOND
     1     1     2    2
     2     2     3   am
     3     2    20    1
     4     3     4    1
     5     3    27    1
     6     4     5    1
     7     4    28    1
     8     4    29    1
     9     5     6    1
    10     5    30    1
    11     5    31    1
    12     6     7   am
    13     6    32    1
    14     7     8    2
    15     7     9    1
    16     9    10    2
    17    10    11    1
    18    11    12   am
    19    11    33    1
    20    12    13    2
    21    12    14    1
    22    14    15   ar
    23    15    16   ar
    24    15    34    1
    25    16    17   ar
    26    16    35    1
    27    17    18   ar
    28    17    36    1
    29    18    19   ar
    30    18    37    1
    31    19     9    1
    32    19    14   ar
    33    20    21   ar
    34    21    22   ar
    35    21    38    1
    36    22    23   ar
    37    22    39    1
    38    23    24    1
    39    23    25   ar
    40    25    26   ar
    41    25    40    1
    42    26    20   ar
    43    26    41    1
@<TRIPOS>MOLECULE
*****
 41 43 0 0 0
SMALL
GASTEIGER

@<TRIPOS>ATOM
      1 O          -0.1129   -3.9292    2.3404 O.2     1  UNL11      -0.2702
      2 C           0.0957   -2.8493    1.7023 C.2     1  UNL11       0.2441
      3 N           1.1913   -2.7709    0.8187 N.am    1  UNL11      -0.3099
      4 C           1.5112   -1.5560    0.0551 C.3     1  UNL11       0.0275
      5 C           0.5420   -0.4344    0.3316 C.3     1  UNL11       0.0275
      6 N          -0.7711   -0.8722   -0.0166 N.am    1  UNL11      -0.3084
      7 C          -1.8773    0.0489    0.1477 C.2     1  UNL11       0.2688
      8 O          -1.5392    1.1491    0.5894 O.2     1  UNL11      -0.2683
      9 C          -3.1913   -0.4358   -0.2193 C.2     1  UNL11       0.1988
     10 N          -4.3009    0.0421    0.4340 N.2     1  UNL11       0.0021
     11 N          -5.5265   -0.3501    0.1566 N.am    1  UNL11      -0.0351
     12 C          -5.7999   -1.2571   -0.7950 C.2     1  UNL11       0.4383
     13 O          -6.9794   -1.6257   -1.0524 O.2     1  UNL11      -0.2116
     14 C          -4.7440   -1.7935   -1.5053 C.ar    1  UNL11       0.1009
     15 C          -5.0005   -2.7302   -2.4912 C.ar    1  UNL11      -0.0441
     16 C          -3.9592   -3.2666   -3.1998 C.ar    1  UNL11      -0.0608
     17 C          -2.6823   -2.8514   -2.9037 C.ar    1  UNL11      -0.0611
     18 C          -2.4089   -1.9133   -1.9183 C.ar    1  UNL11      -0.0513
     19 C          -3.4425   -1.3639   -1.1965 C.ar    1  UNL11       0.0282
     20 C          -0.7898   -1.7304    1.8949 C.ar    1  UNL11       0.0369
     21 C          -0.2784   -0.4325    1.7574 C.ar    1  UNL11      -0.0469
     22 C          -1.0591    0.6896    1.9247 C.ar    1  UNL11      -0.0257
     23 C          -2.3848    0.5788    2.2364 C.ar    1  UNL11       0.1234
     24 F          -3.1418    1.6913    2.3984 F       1  UNL11      -0.2055
     25 C          -2.9072   -0.6854    2.3760 C.ar    1  UNL11      -0.0257
     26 C          -2.1179   -1.8242    2.2069 C.ar    1  UNL11      -0.0469
     27 H           1.7953   -3.6158    0.7086 H       1  UNL11       0.1491
     28 H           1.5791   -1.8179   -0.9995 H       1  UNL11       0.0477
     29 H           2.5517   -1.2919    0.3813 H       1  UNL11       0.0477
     30 H           0.6464   -0.1608    1.4030 H       1  UNL11       0.0477
     31 H           0.8041    0.4079   -0.3416 H       1  UNL11       0.0477
     32 H          -0.9348   -1.8382   -0.3833 H       1  UNL11       0.1491
     33 H          -6.3509    0.0348    0.6744 H       1  UNL11       0.4829
     34 H          -6.0486   -3.0151   -2.6737 H       1  UNL11       0.0627
     35 H          -4.1455   -4.0110   -3.9854 H       1  UNL11       0.0618
     36 H          -1.8575   -3.2688   -3.4568 H       1  UNL11       0.0618
     37 H          -1.4042   -1.6125   -1.7133 H       1  UNL11       0.0624
     38 H           0.7789   -0.3064    1.5083 H       1  UNL11       0.0626
     39 H          -0.6029    1.6763    1.8045 H       1  UNL11       0.0646
     40 H          -3.9671   -0.7754    2.6252 H       1  UNL11       0.0646
     41 H          -2.5707   -2.7923    2.3256 H       1  UNL11       0.0626
@<TRIPOS>BOND
     1     1     2    2
     2     2     3   am
     3     2    20    1
     4     3     4    1
     5     3    27    1
     6     4     5    1
     7     4    28    1
     8     4    29    1
     9     5     6    1
    10     5    30    1
    11     5    31    1
    12     6     7   am
    13     6    32    1
    14     7     8    2
    15     7     9    1
    16     9    10    2
    17    10    11    1
    18    11    12   am
    19    11    33    1
    20    12    13    2
    21    12    14    1
    22    14    15   ar
    23    15    16   ar
    24    15    34    1
    25    16    17   ar
    26    16    35    1
    27    17    18   ar
    28    17    36    1
    29    18    19   ar
    30    18    37    1
    31    19     9    1
    32    19    14   ar
    33    20    21   ar
    34    21    22   ar
    35    21    38    1
    36    22    23   ar
    37    22    39    1
    38    23    24    1
    39    23    25   ar
    40    25    26   ar
    41    25    40    1
    42    26    20   ar
    43    26    41    1
@<TRIPOS>MOLECULE
*****
 41 43 0 0 0
SMALL
GASTEIGER

@<TRIPOS>ATOM
      1 O          -0.1129   -3.9292    2.3404 O.2     1  UNL11      -0.2702
      2 C           0.0957   -2.8493    1.7023 C.2     1  UNL11       0.2441
      3 N           1.1913   -2.7709    0.8187 N.am    1  UNL11      -0.3099
      4 C           1.5112   -1.5560    0.0551 C.3     1  UNL11       0.0275
      5 C           0.5420   -0.4344    0.3316 C.3     1  UNL11       0.0275
      6 N          -0.7711   -0.8722   -0.0166 N.am    1  UNL11      -0.3084
      7 C          -0.9417   -2.2144   -0.5346 C.2     1  UNL11       0.2688
      8 O           0.1133   -2.8466   -0.6185 O.2     1  UNL11      -0.2683
      9 C          -2.2904   -2.6177   -0.8732 C.2     1  UNL11       0.1988
     10 N          -2.6548   -3.9374   -0.7640 N.2     1  UNL11       0.0021
     11 N          -3.8605   -4.3796   -1.0531 N.am    1  UNL11      -0.0351
     12 C          -4.8449   -3.5737   -1.4824 C.2     1  UNL11       0.4383
     13 O          -5.9977   -4.0090   -1.7567 O.2     1  UNL11      -0.2116
     14 C          -4.5695   -2.2277   -1.6226 C.ar    1  UNL11       0.1009
     15 C          -5.5681   -1.3770   -2.0636 C.ar    1  UNL11      -0.0441
     16 C          -5.3029   -0.0414   -2.2053 C.ar    1  UNL11      -0.0608
     17 C          -4.0410    0.4120   -1.9011 C.ar    1  UNL11      -0.0611
     18 C          -3.0294   -0.4282   -1.4579 C.ar    1  UNL11      -0.0513
     19 C          -3.2777   -1.7726   -1.3099 C.ar    1  UNL11       0.0282
     20 C          -0.7898   -1.7304    1.8949 C.ar    1  UNL11       0.0369
     21 C          -1.8636   -1.8641    2.7860 C.ar    1  UNL11      -0.0469
     22 C          -2.7545   -0.8419    3.0263 C.ar    1  UNL11      -0.0257
     23 C          -2.6237    0.3625    2.3944 C.ar    1  UNL11       0.1234
     24 F          -3.5076    1.3602    2.6400 F       1  UNL11      -0.2055
     25 C          -1.5771    0.5153    1.5159 C.ar    1  UNL11      -0.0257
     26 C          -0.6728   -0.5193    1.2707 C.ar    1  UNL11      -0.0469
     27 H           1.7953   -3.6158    0.7086 H       1  UNL11       0.1491
     28 H           1.5791   -1.8179   -0.9995 H       1  UNL11       0.0477
     29 H           2.5517   -1.2919    0.3813 H       1  UNL11       0.0477
     30 H           0.6464   -0.1608    1.4030 H       1  UNL11       0.0477
     31 H           0.8041    0.4079   -0.3416 H       1  UNL11       0.0477
     32 H          -1.5958   -0.2390    0.0987 H       1  UNL11       0.1491
     33 H          -4.1051   -5.3931   -0.9587 H       1  UNL11       0.4829
     34 H          -6.5551   -1.8108   -2.2883 H       1  UNL11       0.0627
     35 H          -6.0840    0.6472   -2.5541 H       1  UNL11       0.0618
     36 H          -3.8244    1.4616   -2.0100 H       1  UNL11       0.0618
     37 H          -2.0590   -0.0429   -1.2302 H       1  UNL11       0.0624
     38 H          -1.9987   -2.8147    3.3095 H       1  UNL11       0.0626
     39 H          -3.5730   -1.0062    3.7330 H       1  UNL11       0.0646
     40 H          -1.4714    1.4779    1.0099 H       1  UNL11       0.0646
     41 H           0.1305   -0.3532    0.5755 H       1  UNL11       0.0626
@<TRIPOS>BOND
     1     1     2    2
     2     2     3   am
     3     2    20    1
     4     3     4    1
     5     3    27    1
     6     4     5    1
     7     4    28    1
     8     4    29    1
     9     5     6    1
    10     5    30    1
    11     5    31    1
    12     6     7   am
    13     6    32    1
    14     7     8    2
    15     7     9    1
    16     9    10    2
    17    10    11    1
    18    11    12   am
    19    11    33    1
    20    12    13    2
    21    12    14    1
    22    14    15   ar
    23    15    16   ar
    24    15    34    1
    25    16    17   ar
    26    16    35    1
    27    17    18   ar
    28    17    36    1
    29    18    19   ar
    30    18    37    1
    31    19     9    1
    32    19    14   ar
    33    20    21   ar
    34    21    22   ar
    35    21    38    1
    36    22    23   ar
    37    22    39    1
    38    23    24    1
    39    23    25   ar
    40    25    26   ar
    41    25    40    1
    42    26    20   ar
    43    26    41    1
@<TRIPOS>MOLECULE
*****
 41 43 0 0 0
SMALL
GASTEIGER

@<TRIPOS>ATOM
      1 O           0.7657   -1.7209   -3.5379 O.2     1  UNL11      -0.2702
      2 C           0.7116   -1.3226   -2.3315 C.2     1  UNL11       0.2441
      3 N           1.5243   -1.9454   -1.3625 N.am    1  UNL11      -0.3099
      4 C           1.5112   -1.5560    0.0551 C.3     1  UNL11       0.0275
      5 C           0.5420   -0.4344    0.3316 C.3     1  UNL11       0.0275
      6 N          -0.7711   -0.8722   -0.0166 N.am    1  UNL11      -0.3084
      7 C          -1.8773    0.0489    0.1477 C.2     1  UNL11       0.2688
      8 O          -2.9676   -0.4310   -0.1694 O.2     1  UNL11      -0.2683
      9 C          -1.5589    1.3697    0.6481 C.2     1  UNL11       0.1988
     10 N          -2.4830    2.0554    1.3980 N.2     1  UNL11       0.0021
     11 N          -2.2666    3.2583    1.8868 N.am    1  UNL11      -0.0351
     12 C          -1.1164    3.9236    1.6935 C.2     1  UNL11       0.4383
     13 O          -0.9199    5.0770    2.1672 O.2     1  UNL11      -0.2116
     14 C          -0.1273    3.3107    0.9498 C.ar    1  UNL11       0.1009
     15 C           1.0672    3.9764    0.7368 C.ar    1  UNL11      -0.0441
     16 C           2.0527    3.3756    0.0006 C.ar    1  UNL11      -0.0608
     17 C           1.8184    2.1191   -0.5062 C.ar    1  UNL11      -0.0611
     18 C           0.6264    1.4388   -0.3014 C.ar    1  UNL11      -0.0513
     19 C          -0.3747    2.0269    0.4355 C.ar    1  UNL11       0.0282
     20 C          -0.1771   -0.2457   -1.9802 C.ar    1  UNL11       0.0369
     21 C          -0.9626    0.3370   -2.9844 C.ar    1  UNL11      -0.0469
     22 C          -1.8372    1.3700   -2.7308 C.ar    1  UNL11      -0.0257
     23 C          -1.9753    1.8752   -1.4687 C.ar    1  UNL11       0.1234
     24 F          -2.8397    2.8921   -1.2327 F       1  UNL11      -0.2055
     25 C          -1.2140    1.3181   -0.4683 C.ar    1  UNL11      -0.0257
     26 C          -0.3269    0.2710   -0.7230 C.ar    1  UNL11      -0.0469
     27 H           2.1587   -2.7144   -1.6738 H       1  UNL11       0.1491
     28 H           2.5313   -1.3306    0.3616 H       1  UNL11       0.0477
     29 H           1.2205   -2.4952    0.5958 H       1  UNL11       0.0477
     30 H           0.6464   -0.1608    1.4030 H       1  UNL11       0.0477
     31 H           0.8041    0.4079   -0.3416 H       1  UNL11       0.0477
     32 H          -0.9348   -1.8382   -0.3833 H       1  UNL11       0.1491
     33 H          -2.9933    3.7532    2.4549 H       1  UNL11       0.4829
     34 H           1.1845    4.9806    1.1735 H       1  UNL11       0.0627
     35 H           3.0064    3.8901   -0.1777 H       1  UNL11       0.0618
     36 H           2.5889    1.6396   -1.0865 H       1  UNL11       0.0618
     37 H           0.4767    0.4627   -0.7097 H       1  UNL11       0.0624
     38 H          -0.8778   -0.0425   -4.0065 H       1  UNL11       0.0626
     39 H          -2.4236    1.7839   -3.5561 H       1  UNL11       0.0646
     40 H          -1.3235    1.7212    0.5413 H       1  UNL11       0.0646
     41 H           0.2472   -0.1331    0.0914 H       1  UNL11       0.0626
@<TRIPOS>BOND
     1     1     2    2
     2     2     3   am
     3     2    20    1
     4     3     4    1
     5     3    27    1
     6     4     5    1
     7     4    28    1
     8     4    29    1
     9     5     6    1
    10     5    30    1
    11     5    31    1
    12     6     7   am
    13     6    32    1
    14     7     8    2
    15     7     9    1
    16     9    10    2
    17    10    11    1
    18    11    12   am
    19    11    33    1
    20    12    13    2
    21    12    14    1
    22    14    15   ar
    23    15    16   ar
    24    15    34    1
    25    16    17   ar
    26    16    35    1
    27    17    18   ar
    28    17    36    1
    29    18    19   ar
    30    18    37    1
    31    19     9    1
    32    19    14   ar
    33    20    21   ar
    34    21    22   ar
    35    21    38    1
    36    22    23   ar
    37    22    39    1
    38    23    24    1
    39    23    25   ar
    40    25    26   ar
    41    25    40    1
    42    26    20   ar
    43    26    41    1
@<TRIPOS>MOLECULE
*****
 41 43 0 0 0
SMALL
GASTEIGER

@<TRIPOS>ATOM
      1 O          -0.1129   -3.9292    2.3404 O.2     1  UNL11      -0.2702
      2 C           0.0957   -2.8493    1.7023 C.2     1  UNL11       0.2441
      3 N           1.1913   -2.7709    0.8187 N.am    1  UNL11      -0.3099
      4 C           1.5112   -1.5560    0.0551 C.3     1  UNL11       0.0275
      5 C           0.5420   -0.4344    0.3316 C.3     1  UNL11       0.0275
      6 N          -0.7711   -0.8722   -0.0166 N.am    1  UNL11      -0.3084
      7 C          -1.4990   -0.1442   -1.0360 C.2     1  UNL11       0.2688
      8 O          -0.8716    0.8095   -1.5013 O.2     1  UNL11      -0.2683
      9 C          -2.8264   -0.6236   -1.3593 C.2     1  UNL11       0.1988
     10 N          -3.3209   -0.4559   -2.6296 N.2     1  UNL11       0.0021
     11 N          -4.5166   -0.8645   -2.9985 N.am    1  UNL11      -0.0351
     12 C          -5.3620   -1.4845   -2.1595 C.2     1  UNL11       0.4383
     13 O          -6.5066   -1.8721   -2.5244 O.2     1  UNL11      -0.2116
     14 C          -4.9491   -1.6968   -0.8589 C.ar    1  UNL11       0.1009
     15 C          -5.8028   -2.3339    0.0246 C.ar    1  UNL11      -0.0441
     16 C          -5.4008   -2.5479    1.3156 C.ar    1  UNL11      -0.0608
     17 C          -4.1504   -2.1181    1.6926 C.ar    1  UNL11      -0.0611
     18 C          -3.2831   -1.4780    0.8186 C.ar    1  UNL11      -0.0513
     19 C          -3.6700   -1.2544   -0.4819 C.ar    1  UNL11       0.0282
     20 C          -0.7898   -1.7304    1.8949 C.ar    1  UNL11       0.0369
     21 C          -1.8636   -1.8641    2.7860 C.ar    1  UNL11      -0.0469
     22 C          -2.7545   -0.8419    3.0263 C.ar    1  UNL11      -0.0257
     23 C          -2.6237    0.3625    2.3944 C.ar    1  UNL11       0.1234
     24 F          -3.5076    1.3602    2.6400 F       1  UNL11      -0.2055
     25 C          -1.5771    0.5153    1.5159 C.ar    1  UNL11      -0.0257
     26 C          -0.6728   -0.5193    1.2707 C.ar    1  UNL11      -0.0469
     27 H           1.7953   -3.6158    0.7086 H       1  UNL11       0.1491
     28 H           1.5791   -1.8179   -0.9995 H       1  UNL11       0.0477
     29 H           2.5517   -1.2919    0.3813 H       1  UNL11       0.0477
     30 H           0.6464   -0.1608    1.4030 H       1  UNL11       0.0477
     31 H           0.8041    0.4079   -0.3416 H       1  UNL11       0.0477
     32 H          -1.2020   -1.7017    0.4530 H       1  UNL11       0.1491
     33 H          -4.8629   -0.7206   -3.9759 H       1  UNL11       0.4829
     34 H          -6.7897   -2.6507   -0.3475 H       1  UNL11       0.0627
     35 H          -6.0661   -3.0520    2.0294 H       1  UNL11       0.0618
     36 H          -3.8267   -2.2828    2.7067 H       1  UNL11       0.0618
     37 H          -2.3174   -1.1564    1.1442 H       1  UNL11       0.0624
     38 H          -1.9987   -2.8147    3.3095 H       1  UNL11       0.0626
     39 H          -3.5730   -1.0062    3.7330 H       1  UNL11       0.0646
     40 H          -1.4714    1.4779    1.0099 H       1  UNL11       0.0646
     41 H           0.1305   -0.3532    0.5755 H       1  UNL11       0.0626
@<TRIPOS>BOND
     1     1     2    2
     2     2     3   am
     3     2    20    1
     4     3     4    1
     5     3    27    1
     6     4     5    1
     7     4    28    1
     8     4    29    1
     9     5     6    1
    10     5    30    1
    11     5    31    1
    12     6     7   am
    13     6    32    1
    14     7     8    2
    15     7     9    1
    16     9    10    2
    17    10    11    1
    18    11    12   am
    19    11    33    1
    20    12    13    2
    21    12    14    1
    22    14    15   ar
    23    15    16   ar
    24    15    34    1
    25    16    17   ar
    26    16    35    1
    27    17    18   ar
    28    17    36    1
    29    18    19   ar
    30    18    37    1
    31    19     9    1
    32    19    14   ar
    33    20    21   ar
    34    21    22   ar
    35    21    38    1
    36    22    23   ar
    37    22    39    1
    38    23    24    1
    39    23    25   ar
    40    25    26   ar
    41    25    40    1
    42    26    20   ar
    43    26    41    1
@<TRIPOS>MOLECULE
*****
 41 43 0 0 0
SMALL
GASTEIGER

@<TRIPOS>ATOM
      1 O           1.2595   -1.4492   -3.6079 O.2     1  UNL11      -0.2702
      2 C           1.2429   -1.0386   -2.4045 C.2     1  UNL11       0.2441
      3 N           1.5243   -1.9454   -1.3625 N.am    1  UNL11      -0.3099
      4 C           1.5112   -1.5560    0.0551 C.3     1  UNL11       0.0275
      5 C           0.5420   -0.4344    0.3316 C.3     1  UNL11       0.0275
      6 N          -0.7711   -0.8722   -0.0166 N.am    1  UNL11      -0.3084
      7 C          -1.3281   -2.0172    0.6746 C.2     1  UNL11       0.2688
      8 O          -2.4600   -2.3198    0.2912 O.2     1  UNL11      -0.2683
      9 C          -0.5017   -2.6317    1.6923 C.2     1  UNL11       0.1988
     10 N          -0.6159   -3.9774    1.9420 N.2     1  UNL11       0.0021
     11 N           0.1001   -4.6064    2.8500 N.am    1  UNL11      -0.0351
     12 C           1.0099   -3.9829    3.6158 C.2     1  UNL11       0.4383
     13 O           1.6910   -4.5965    4.4837 O.2     1  UNL11      -0.2116
     14 C           1.1933   -2.6262    3.4344 C.ar    1  UNL11       0.1009
     15 C           2.1255   -1.9614    4.2118 C.ar    1  UNL11      -0.0441
     16 C           2.3131   -0.6165    4.0380 C.ar    1  UNL11      -0.0608
     17 C           1.5611    0.0327    3.0874 C.ar    1  UNL11      -0.0611
     18 C           0.6228   -0.6198    2.3003 C.ar    1  UNL11      -0.0513
     19 C           0.4210   -1.9705    2.4611 C.ar    1  UNL11       0.0282
     20 C           0.9374    0.3416   -2.1312 C.ar    1  UNL11       0.0369
     21 C           0.9375    0.7830   -0.8007 C.ar    1  UNL11      -0.0469
     22 C           0.6565    2.0862   -0.4557 C.ar    1  UNL11      -0.0257
     23 C           0.3618    3.0149   -1.4137 C.ar    1  UNL11       0.1234
     24 F           0.0870    4.2943   -1.0605 F       1  UNL11      -0.2055
     25 C           0.3560    2.6033   -2.7256 C.ar    1  UNL11      -0.0257
     26 C           0.6405    1.2829   -3.0776 C.ar    1  UNL11      -0.0469
     27 H           1.7502   -2.9326   -1.6177 H       1  UNL11       0.1491
     28 H           2.5313   -1.3306    0.3616 H       1  UNL11       0.0477
     29 H           1.2205   -2.4952    0.5958 H       1  UNL11       0.0477
     30 H           0.6464   -0.1608    1.4030 H       1  UNL11       0.0477
     31 H           0.8041    0.4079   -0.3416 H       1  UNL11       0.0477
     32 H          -1.3227   -0.3784   -0.7557 H       1  UNL11       0.1491
     33 H          -0.0120   -5.6341    3.0149 H       1  UNL11       0.4829
     34 H           2.6916   -2.5462    4.9536 H       1  UNL11       0.0627
     35 H           3.0487   -0.0739    4.6467 H       1  UNL11       0.0618
     36 H           1.7028    1.0909    2.9446 H       1  UNL11       0.0618
     37 H           0.0547   -0.0850    1.5701 H       1  UNL11       0.0624
     38 H           1.1692    0.0664   -0.0078 H       1  UNL11       0.0626
     39 H           0.6721    2.3710    0.6002 H       1  UNL11       0.0646
     40 H           0.1205    3.3449   -3.4925 H       1  UNL11       0.0646
     41 H           0.6245    1.0074   -4.1169 H       1  UNL11       0.0626
@<TRIPOS>BOND
     1     1     2    2
     2     2     3   am
     3     2    20    1
     4     3     4    1
     5     3    27    1
     6     4     5    1
     7     4    28    1
     8     4    29    1
     9     5     6    1
    10     5    30    1
    11     5    31    1
    12     6     7   am
    13     6    32    1
    14     7     8    2
    15     7     9    1
    16     9    10    2
    17    10    11    1
    18    11    12   am
    19    11    33    1
    20    12    13    2
    21    12    14    1
    22    14    15   ar
    23    15    16   ar
    24    15    34    1
    25    16    17   ar
    26    16    35    1
    27    17    18   ar
    28    17    36    1
    29    18    19   ar
    30    18    37    1
    31    19     9    1
    32    19    14   ar
    33    20    21   ar
    34    21    22   ar
    35    21    38    1
    36    22    23   ar
    37    22    39    1
    38    23    24    1
    39    23    25   ar
    40    25    26   ar
    41    25    40    1
    42    26    20   ar
    43    26    41    1
@<TRIPOS>MOLECULE
*****
 41 43 0 0 0
SMALL
GASTEIGER

@<TRIPOS>ATOM
      1 O           4.8354   -1.5308    1.6176 O.2     1  UNL11      -0.2702
      2 C           3.6487   -1.9068    1.3580 C.2     1  UNL11       0.2441
      3 N           2.8939   -1.1969    0.4022 N.am    1  UNL11      -0.3099
      4 C           1.5112   -1.5560    0.0551 C.3     1  UNL11       0.0275
      5 C           0.5420   -0.4344    0.3316 C.3     1  UNL11       0.0275
      6 N          -0.7711   -0.8722   -0.0166 N.am    1  UNL11      -0.3084
      7 C          -0.9417   -2.2144   -0.5346 C.2     1  UNL11       0.2688
      8 O          -2.1105   -2.4880   -0.8152 O.2     1  UNL11      -0.2683
      9 C           0.2510   -3.0274   -0.6486 C.2     1  UNL11       0.1988
     10 N           0.1617   -4.3911   -0.5122 N.2     1  UNL11       0.0021
     11 N           1.2001   -5.1950   -0.6028 N.am    1  UNL11      -0.0351
     12 C           2.4445   -4.7488   -0.8381 C.2     1  UNL11       0.4383
     13 O           3.4330   -5.5292   -0.9231 O.2     1  UNL11      -0.2116
     14 C           2.6303   -3.3887   -0.9894 C.ar    1  UNL11       0.1009
     15 C           3.9038   -2.9046   -1.2326 C.ar    1  UNL11      -0.0441
     16 C           4.0962   -1.5576   -1.3838 C.ar    1  UNL11      -0.0608
     17 C           3.0062   -0.7251   -1.2876 C.ar    1  UNL11      -0.0611
     18 C           1.7234   -1.1951   -1.0442 C.ar    1  UNL11      -0.0513
     19 C           1.5114   -2.5450   -0.8897 C.ar    1  UNL11       0.0282
     20 C           3.1009   -3.0477    2.0445 C.ar    1  UNL11       0.0369
     21 C           3.8963   -3.7161    2.9855 C.ar    1  UNL11      -0.0469
     22 C           3.4468   -4.8141    3.6845 C.ar    1  UNL11      -0.0257
     23 C           2.1865   -5.3025    3.4841 C.ar    1  UNL11       0.1234
     24 F           1.7565   -6.3841    4.1787 F       1  UNL11      -0.2055
     25 C           1.3892   -4.6618    2.5652 C.ar    1  UNL11      -0.0257
     26 C           1.8426   -3.5487    1.8556 C.ar    1  UNL11      -0.0469
     27 H           3.3439   -0.3834   -0.0739 H       1  UNL11       0.1491
     28 H           1.2558   -2.4831    0.5657 H       1  UNL11       0.0477
     29 H           1.5569   -1.8016   -1.0387 H       1  UNL11       0.0477
     30 H           0.6464   -0.1608    1.4030 H       1  UNL11       0.0477
     31 H           0.8041    0.4079   -0.3416 H       1  UNL11       0.0477
     32 H          -1.5958   -0.2390    0.0987 H       1  UNL11       0.1491
     33 H           1.0969   -6.2310   -0.4936 H       1  UNL11       0.4829
     34 H           4.7294   -3.6306   -1.2970 H       1  UNL11       0.0627
     35 H           5.1003   -1.1571   -1.5773 H       1  UNL11       0.0618
     36 H           3.1494    0.3360   -1.4054 H       1  UNL11       0.0618
     37 H           0.8977   -0.5203   -0.9753 H       1  UNL11       0.0624
     38 H           4.9107   -3.3524    3.1713 H       1  UNL11       0.0626
     39 H           4.1142   -5.2936    4.4063 H       1  UNL11       0.0646
     40 H           0.3812   -5.0513    2.4041 H       1  UNL11       0.0646
     41 H           1.1830   -3.0801    1.1473 H       1  UNL11       0.0626
@<TRIPOS>BOND
     1     1     2    2
     2     2     3   am
     3     2    20    1
     4     3     4    1
     5     3    27    1
     6     4     5    1
     7     4    28    1
     8     4    29    1
     9     5     6    1
    10     5    30    1
    11     5    31    1
    12     6     7   am
    13     6    32    1
    14     7     8    2
    15     7     9    1
    16     9    10    2
    17    10    11    1
    18    11    12   am
    19    11    33    1
    20    12    13    2
    21    12    14    1
    22    14    15   ar
    23    15    16   ar
    24    15    34    1
    25    16    17   ar
    26    16    35    1
    27    17    18   ar
    28    17    36    1
    29    18    19   ar
    30    18    37    1
    31    19     9    1
    32    19    14   ar
    33    20    21   ar
    34    21    22   ar
    35    21    38    1
    36    22    23   ar
    37    22    39    1
    38    23    24    1
    39    23    25   ar
    40    25    26   ar
    41    25    40    1
    42    26    20   ar
    43    26    41    1
@<TRIPOS>MOLECULE
*****
 41 43 0 0 0
SMALL
GASTEIGER

@<TRIPOS>ATOM
      1 O           0.7547   -3.2390   -3.1210 O.2     1  UNL11      -0.2702
      2 C           0.6791   -2.9446   -1.8863 C.2     1  UNL11       0.2441
      3 N           1.5243   -1.9454   -1.3625 N.am    1  UNL11      -0.3099
      4 C           1.5112   -1.5560    0.0551 C.3     1  UNL11       0.0275
      5 C           0.5420   -0.4344    0.3316 C.3     1  UNL11       0.0275
      6 N          -0.7711   -0.8722   -0.0166 N.am    1  UNL11      -0.3084
      7 C          -1.8773    0.0489    0.1477 C.2     1  UNL11       0.2688
      8 O          -2.9676   -0.4310   -0.1694 O.2     1  UNL11      -0.2683
      9 C          -1.5589    1.3697    0.6481 C.2     1  UNL11       0.1988
     10 N          -0.4849    1.5401    1.4871 N.2     1  UNL11       0.0021
     11 N          -0.1337    2.7083    1.9818 N.am    1  UNL11      -0.0351
     12 C          -0.7991    3.8418    1.7075 C.2     1  UNL11       0.4383
     13 O          -0.4531    4.9567    2.1877 O.2     1  UNL11      -0.2116
     14 C          -1.8952    3.7667    0.8708 C.ar    1  UNL11       0.1009
     15 C          -2.5974    4.9216    0.5731 C.ar    1  UNL11      -0.0441
     16 C          -3.6851    4.8553   -0.2554 C.ar    1  UNL11      -0.0608
     17 C          -4.0451    3.6312   -0.7678 C.ar    1  UNL11      -0.0611
     18 C          -3.3514    2.4646   -0.4789 C.ar    1  UNL11      -0.0513
     19 C          -2.2564    2.5122    0.3516 C.ar    1  UNL11       0.0282
     20 C          -0.2665   -3.6367   -1.0497 C.ar    1  UNL11       0.0369
     21 C          -0.3487   -3.2909    0.3063 C.ar    1  UNL11      -0.0469
     22 C          -1.2266   -3.9042    1.1722 C.ar    1  UNL11      -0.0257
     23 C          -2.0654   -4.8903    0.7351 C.ar    1  UNL11       0.1234
     24 F          -2.9245   -5.4858    1.5978 F       1  UNL11      -0.2055
     25 C          -2.0012   -5.2453   -0.5917 C.ar    1  UNL11      -0.0257
     26 C          -1.1124   -4.6250   -1.4712 C.ar    1  UNL11      -0.0469
     27 H           2.1841   -1.4675   -2.0161 H       1  UNL11       0.1491
     28 H           2.5313   -1.3306    0.3616 H       1  UNL11       0.0477
     29 H           1.2205   -2.4952    0.5958 H       1  UNL11       0.0477
     30 H           0.6464   -0.1608    1.4030 H       1  UNL11       0.0477
     31 H           0.8041    0.4079   -0.3416 H       1  UNL11       0.0477
     32 H          -0.9348   -1.8382   -0.3833 H       1  UNL11       0.1491
     33 H           0.6914    2.8031    2.6191 H       1  UNL11       0.4829
     34 H          -2.2512    5.8668    1.0198 H       1  UNL11       0.0627
     35 H          -4.2533    5.7623   -0.5017 H       1  UNL11       0.0618
     36 H          -4.8998    3.5708   -1.4206 H       1  UNL11       0.0618
     37 H          -3.6581    1.5290   -0.8941 H       1  UNL11       0.0624
     38 H           0.3080   -2.5055    0.6906 H       1  UNL11       0.0626
     39 H          -1.2446   -3.5911    2.2199 H       1  UNL11       0.0646
     40 H          -2.6715   -6.0336   -0.9425 H       1  UNL11       0.0646
     41 H          -1.0983   -4.9358   -2.5005 H       1  UNL11       0.0626
@<TRIPOS>BOND
     1     1     2    2
     2     2     3   am
     3     2    20    1
     4     3     4    1
     5     3    27    1
     6     4     5    1
     7     4    28    1
     8     4    29    1
     9     5     6    1
    10     5    30    1
    11     5    31    1
    12     6     7   am
    13     6    32    1
    14     7     8    2
    15     7     9    1
    16     9    10    2
    17    10    11    1
    18    11    12   am
    19    11    33    1
    20    12    13    2
    21    12    14    1
    22    14    15   ar
    23    15    16   ar
    24    15    34    1
    25    16    17   ar
    26    16    35    1
    27    17    18   ar
    28    17    36    1
    29    18    19   ar
    30    18    37    1
    31    19     9    1
    32    19    14   ar
    33    20    21   ar
    34    21    22   ar
    35    21    38    1
    36    22    23   ar
    37    22    39    1
    38    23    24    1
    39    23    25   ar
    40    25    26   ar
    41    25    40    1
    42    26    20   ar
    43    26    41    1
@<TRIPOS>MOLECULE
*****
 41 43 0 0 0
SMALL
GASTEIGER

@<TRIPOS>ATOM
      1 O           2.6133   -2.7619   -3.2349 O.2     1  UNL11      -0.2702
      2 C           2.6715   -2.4584   -2.0013 C.2     1  UNL11       0.2441
      3 N           1.5243   -1.9454   -1.3625 N.am    1  UNL11      -0.3099
      4 C           1.5112   -1.5560    0.0551 C.3     1  UNL11       0.0275
      5 C           0.5420   -0.4344    0.3316 C.3     1  UNL11       0.0275
      6 N          -0.7711   -0.8722   -0.0166 N.am    1  UNL11      -0.3084
      7 C          -0.9417   -2.2144   -0.5346 C.2     1  UNL11       0.2688
      8 O          -2.1105   -2.4880   -0.8152 O.2     1  UNL11      -0.2683
      9 C           0.2510   -3.0274   -0.6486 C.2     1  UNL11       0.1988
     10 N           0.3335   -3.9820   -1.6327 N.2     1  UNL11       0.0021
     11 N           1.3835   -4.7582   -1.7989 N.am    1  UNL11      -0.0351
     12 C           2.4718   -4.6837   -1.0160 C.2     1  UNL11       0.4383
     13 O           3.4732   -5.4335   -1.1848 O.2     1  UNL11      -0.2116
     14 C           2.4783   -3.7507    0.0021 C.ar    1  UNL11       0.1009
     15 C           3.5888   -3.6548    0.8225 C.ar    1  UNL11      -0.0441
     16 C           3.6030   -2.7324    1.8340 C.ar    1  UNL11      -0.0608
     17 C           2.5022   -1.9256    2.0006 C.ar    1  UNL11      -0.0611
     18 C           1.3815   -2.0095    1.1865 C.ar    1  UNL11      -0.0513
     19 C           1.3496   -2.9302    0.1656 C.ar    1  UNL11       0.0282
     20 C           3.9056   -2.6445   -1.2835 C.ar    1  UNL11       0.0369
     21 C           5.0152   -3.1582   -1.9691 C.ar    1  UNL11      -0.0469
     22 C           6.2305   -3.3651   -1.3554 C.ar    1  UNL11      -0.0257
     23 C           6.4044   -3.0724   -0.0322 C.ar    1  UNL11       0.1234
     24 F           7.6059   -3.2808    0.5595 F       1  UNL11      -0.2055
     25 C           5.3287   -2.5673    0.6595 C.ar    1  UNL11      -0.0257
     26 C           4.0959   -2.3568    0.0397 C.ar    1  UNL11      -0.0469
     27 H           0.6523   -1.8408   -1.9277 H       1  UNL11       0.1491
     28 H           2.5313   -1.3306    0.3616 H       1  UNL11       0.0477
     29 H           1.2205   -2.4952    0.5958 H       1  UNL11       0.0477
     30 H           0.6464   -0.1608    1.4030 H       1  UNL11       0.0477
     31 H           0.8041    0.4079   -0.3416 H       1  UNL11       0.0477
     32 H          -1.5958   -0.2390    0.0987 H       1  UNL11       0.1491
     33 H           1.4138   -5.4765   -2.5599 H       1  UNL11       0.4829
     34 H           4.4342   -4.3339    0.6298 H       1  UNL11       0.0627
     35 H           4.4763   -2.6434    2.4939 H       1  UNL11       0.0618
     36 H           2.5056   -1.1972    2.7942 H       1  UNL11       0.0618
     37 H           0.5422   -1.3669    1.3434 H       1  UNL11       0.0624
     38 H           4.9119   -3.4036   -3.0297 H       1  UNL11       0.0626
     39 H           7.0600   -3.7687   -1.9431 H       1  UNL11       0.0646
     40 H           5.4664   -2.3329    1.7177 H       1  UNL11       0.0646
     41 H           3.2833   -1.9594    0.6212 H       1  UNL11       0.0626
@<TRIPOS>BOND
     1     1     2    2
     2     2     3   am
     3     2    20    1
     4     3     4    1
     5     3    27    1
     6     4     5    1
     7     4    28    1
     8     4    29    1
     9     5     6    1
    10     5    30    1
    11     5    31    1
    12     6     7   am
    13     6    32    1
    14     7     8    2
    15     7     9    1
    16     9    10    2
    17    10    11    1
    18    11    12   am
    19    11    33    1
    20    12    13    2
    21    12    14    1
    22    14    15   ar
    23    15    16   ar
    24    15    34    1
    25    16    17   ar
    26    16    35    1
    27    17    18   ar
    28    17    36    1
    29    18    19   ar
    30    18    37    1
    31    19     9    1
    32    19    14   ar
    33    20    21   ar
    34    21    22   ar
    35    21    38    1
    36    22    23   ar
    37    22    39    1
    38    23    24    1
    39    23    25   ar
    40    25    26   ar
    41    25    40    1
    42    26    20   ar
    43    26    41    1
@<TRIPOS>MOLECULE
*****
 41 43 0 0 0
SMALL
GASTEIGER

@<TRIPOS>ATOM
      1 O           4.4973   -0.5357    1.9353 O.2     1  UNL11      -0.2702
      2 C           3.2853   -0.8485    1.7109 C.2     1  UNL11       0.2441
      3 N           2.8939   -1.1969    0.4022 N.am    1  UNL11      -0.3099
      4 C           1.5112   -1.5560    0.0551 C.3     1  UNL11       0.0275
      5 C           0.5420   -0.4344    0.3316 C.3     1  UNL11       0.0275
      6 N          -0.7711   -0.8722   -0.0166 N.am    1  UNL11      -0.3084
      7 C          -1.7909   -0.8976    1.0122 C.2     1  UNL11       0.2688
      8 O          -2.8840   -1.3023    0.6107 O.2     1  UNL11      -0.2683
      9 C          -1.3970   -0.4566    2.3338 C.2     1  UNL11       0.1988
     10 N          -2.0091   -0.9910    3.4411 N.2     1  UNL11       0.0021
     11 N          -1.7055   -0.6409    4.6731 N.am    1  UNL11      -0.0351
     12 C          -0.7650    0.2748    4.9561 C.2     1  UNL11       0.4383
     13 O          -0.4821    0.6027    6.1418 O.2     1  UNL11      -0.2116
     14 C          -0.0956    0.8667    3.9032 C.ar    1  UNL11       0.1009
     15 C           0.8781    1.8135    4.1695 C.ar    1  UNL11      -0.0441
     16 C           1.5462    2.4049    3.1312 C.ar    1  UNL11      -0.0608
     17 C           1.2228    2.0334    1.8474 C.ar    1  UNL11      -0.0611
     18 C           0.2493    1.0859    1.5643 C.ar    1  UNL11      -0.0513
     19 C          -0.4320    0.4816    2.5946 C.ar    1  UNL11       0.0282
     20 C           2.3390   -0.8403    2.7960 C.ar    1  UNL11       0.0369
     21 C           2.5384    0.0507    3.8596 C.ar    1  UNL11      -0.0469
     22 C           1.6797    0.1209    4.9340 C.ar    1  UNL11      -0.0257
     23 C           0.5816   -0.6891    5.0054 C.ar    1  UNL11       0.1234
     24 F          -0.2555   -0.6097    6.0685 F       1  UNL11      -0.2055
     25 C           0.3670   -1.5708    3.9724 C.ar    1  UNL11      -0.0257
     26 C           1.2359   -1.6438    2.8825 C.ar    1  UNL11      -0.0469
     27 H           3.6233   -1.1969   -0.3454 H       1  UNL11       0.1491
     28 H           1.2558   -2.4831    0.5657 H       1  UNL11       0.0477
     29 H           1.5569   -1.8016   -1.0387 H       1  UNL11       0.0477
     30 H           0.6464   -0.1608    1.4030 H       1  UNL11       0.0477
     31 H           0.8041    0.4079   -0.3416 H       1  UNL11       0.0477
     32 H          -0.9957   -1.1694   -0.9941 H       1  UNL11       0.1491
     33 H          -2.1920   -1.0684    5.4956 H       1  UNL11       0.4829
     34 H           1.0841    2.0613    5.2226 H       1  UNL11       0.0627
     35 H           2.3216    3.1580    3.3252 H       1  UNL11       0.0618
     36 H           1.7440    2.4941    1.0250 H       1  UNL11       0.0618
     37 H           0.0223    0.8201    0.5545 H       1  UNL11       0.0624
     38 H           3.4074    0.7141    3.8355 H       1  UNL11       0.0626
     39 H           1.8881    0.8369    5.7342 H       1  UNL11       0.0646
     40 H          -0.5107   -2.2191    4.0283 H       1  UNL11       0.0646
     41 H           1.0269   -2.3488    2.0979 H       1  UNL11       0.0626
@<TRIPOS>BOND
     1     1     2    2
     2     2     3   am
     3     2    20    1
     4     3     4    1
     5     3    27    1
     6     4     5    1
     7     4    28    1
     8     4    29    1
     9     5     6    1
    10     5    30    1
    11     5    31    1
    12     6     7   am
    13     6    32    1
    14     7     8    2
    15     7     9    1
    16     9    10    2
    17    10    11    1
    18    11    12   am
    19    11    33    1
    20    12    13    2
    21    12    14    1
    22    14    15   ar
    23    15    16   ar
    24    15    34    1
    25    16    17   ar
    26    16    35    1
    27    17    18   ar
    28    17    36    1
    29    18    19   ar
    30    18    37    1
    31    19     9    1
    32    19    14   ar
    33    20    21   ar
    34    21    22   ar
    35    21    38    1
    36    22    23   ar
    37    22    39    1
    38    23    24    1
    39    23    25   ar
    40    25    26   ar
    41    25    40    1
    42    26    20   ar
    43    26    41    1
@<TRIPOS>MOLECULE
*****
 41 43 0 0 0
SMALL
GASTEIGER

@<TRIPOS>ATOM
      1 O           2.3094   -3.2550   -3.1022 O.2     1  UNL11      -0.2702
      2 C           2.3401   -2.9815   -1.8607 C.2     1  UNL11       0.2441
      3 N           1.5243   -1.9454   -1.3625 N.am    1  UNL11      -0.3099
      4 C           1.5112   -1.5560    0.0551 C.3     1  UNL11       0.0275
      5 C           0.5420   -0.4344    0.3316 C.3     1  UNL11       0.0275
      6 N          -0.7711   -0.8722   -0.0166 N.am    1  UNL11      -0.3084
      7 C          -0.9197   -1.8514   -1.0740 C.2     1  UNL11       0.2688
      8 O           0.1518   -2.2050   -1.5704 O.2     1  UNL11      -0.2683
      9 C          -2.2689   -2.2687   -1.3933 C.2     1  UNL11       0.1988
     10 N          -3.3287   -1.7369   -0.7003 N.2     1  UNL11       0.0021
     11 N          -4.5817   -2.0664   -0.9332 N.am    1  UNL11      -0.0351
     12 C          -4.9346   -2.9566   -1.8744 C.2     1  UNL11       0.4383
     13 O          -6.1397   -3.2650   -2.0890 O.2     1  UNL11      -0.2116
     14 C          -3.9333   -3.5441   -2.6224 C.ar    1  UNL11       0.1009
     15 C          -4.2721   -4.4648   -3.5986 C.ar    1  UNL11      -0.0441
     16 C          -3.2854   -5.0516   -4.3443 C.ar    1  UNL11      -0.0608
     17 C          -1.9793   -4.7017   -4.0946 C.ar    1  UNL11      -0.0611
     18 C          -1.6237   -3.7804   -3.1196 C.ar    1  UNL11      -0.0513
     19 C          -2.6016   -3.1811   -2.3609 C.ar    1  UNL11       0.0282
     20 C           3.2058   -3.7342   -0.9907 C.ar    1  UNL11       0.0369
     21 C           3.7378   -3.1043    0.1430 C.ar    1  UNL11      -0.0469
     22 C           4.5726   -3.7543    1.0246 C.ar    1  UNL11      -0.0257
     23 C           4.9201   -5.0605    0.8245 C.ar    1  UNL11       0.1234
     24 F           5.7426   -5.6884    1.7000 F       1  UNL11      -0.2055
     25 C           4.4094   -5.6977   -0.2817 C.ar    1  UNL11      -0.0257
     26 C           3.5631   -5.0410   -1.1766 C.ar    1  UNL11      -0.0469
     27 H           0.9072   -1.4387   -2.0358 H       1  UNL11       0.1491
     28 H           2.5313   -1.3306    0.3616 H       1  UNL11       0.0477
     29 H           1.2205   -2.4952    0.5958 H       1  UNL11       0.0477
     30 H           0.6464   -0.1608    1.4030 H       1  UNL11       0.0477
     31 H           0.8041    0.4079   -0.3416 H       1  UNL11       0.0477
     32 H          -1.6113   -0.4954    0.4798 H       1  UNL11       0.1491
     33 H          -5.3665   -1.6415   -0.3859 H       1  UNL11       0.4829
     34 H          -5.3391   -4.6963   -3.7431 H       1  UNL11       0.0627
     35 H          -3.5371   -5.7841   -5.1229 H       1  UNL11       0.0618
     36 H          -1.1971   -5.1590   -4.6772 H       1  UNL11       0.0618
     37 H          -0.5984   -3.5309   -2.9511 H       1  UNL11       0.0624
     38 H           3.4807   -2.0588    0.3343 H       1  UNL11       0.0626
     39 H           4.9564   -3.2096    1.8919 H       1  UNL11       0.0646
     40 H           4.6865   -6.7422   -0.4428 H       1  UNL11       0.0646
     41 H           3.1878   -5.5804   -2.0277 H       1  UNL11       0.0626
@<TRIPOS>BOND
     1     1     2    2
     2     2     3   am
     3     2    20    1
     4     3     4    1
     5     3    27    1
     6     4     5    1
     7     4    28    1
     8     4    29    1
     9     5     6    1
    10     5    30    1
    11     5    31    1
    12     6     7   am
    13     6    32    1
    14     7     8    2
    15     7     9    1
    16     9    10    2
    17    10    11    1
    18    11    12   am
    19    11    33    1
    20    12    13    2
    21    12    14    1
    22    14    15   ar
    23    15    16   ar
    24    15    34    1
    25    16    17   ar
    26    16    35    1
    27    17    18   ar
    28    17    36    1
    29    18    19   ar
    30    18    37    1
    31    19     9    1
    32    19    14   ar
    33    20    21   ar
    34    21    22   ar
    35    21    38    1
    36    22    23   ar
    37    22    39    1
    38    23    24    1
    39    23    25   ar
    40    25    26   ar
    41    25    40    1
    42    26    20   ar
    43    26    41    1
@<TRIPOS>MOLECULE
*****
 41 43 0 0 0
SMALL
GASTEIGER

@<TRIPOS>ATOM
      1 O          -0.9011   -3.0221   -0.1391 O.2     1  UNL11      -0.2702
      2 C          -0.0308   -3.4595    0.6785 C.2     1  UNL11       0.2441
      3 N           1.1913   -2.7709    0.8187 N.am    1  UNL11      -0.3099
      4 C           1.5112   -1.5560    0.0551 C.3     1  UNL11       0.0275
      5 C           0.5420   -0.4344    0.3316 C.3     1  UNL11       0.0275
      6 N          -0.7711   -0.8722   -0.0166 N.am    1  UNL11      -0.3084
      7 C          -1.5820   -1.5134    0.9985 C.2     1  UNL11       0.2688
      8 O          -2.6919   -1.8636    0.5920 O.2     1  UNL11      -0.2683
      9 C          -0.9936   -1.6511    2.3142 C.2     1  UNL11       0.1988
     10 N          -1.3481   -2.7117    3.1117 N.2     1  UNL11       0.0021
     11 N          -0.8567   -2.9039    4.3176 N.am    1  UNL11      -0.0351
     12 C           0.0394   -2.0745    4.8763 C.2     1  UNL11       0.4383
     13 O           0.5039   -2.2689    6.0339 O.2     1  UNL11      -0.2116
     14 C           0.4551   -0.9784    4.1463 C.ar    1  UNL11       0.1009
     15 C           1.3782   -0.1091    4.7008 C.ar    1  UNL11      -0.0441
     16 C           1.7953    0.9798    3.9835 C.ar    1  UNL11      -0.0608
     17 C           1.2770    1.1731    2.7247 C.ar    1  UNL11      -0.0611
     18 C           0.3511    0.3106    2.1551 C.ar    1  UNL11      -0.0513
     19 C          -0.0793   -0.7883    2.8610 C.ar    1  UNL11       0.0282
     20 C          -0.3107   -4.6470    1.4428 C.ar    1  UNL11       0.0369
     21 C          -1.1558   -5.6209    0.8930 C.ar    1  UNL11      -0.0469
     22 C          -1.4724   -6.7840    1.5589 C.ar    1  UNL11      -0.0257
     23 C          -0.9661   -7.0376    2.8024 C.ar    1  UNL11       0.1234
     24 F          -1.2858   -8.1864    3.4469 F       1  UNL11      -0.2055
     25 C          -0.1348   -6.0954    3.3607 C.ar    1  UNL11      -0.0257
     26 C           0.1875   -4.9158    2.6876 C.ar    1  UNL11      -0.0469
     27 H           1.8923   -3.1466    1.4957 H       1  UNL11       0.1491
     28 H           1.5791   -1.8179   -0.9995 H       1  UNL11       0.0477
     29 H           2.5517   -1.2919    0.3813 H       1  UNL11       0.0477
     30 H           0.6464   -0.1608    1.4030 H       1  UNL11       0.0477
     31 H           0.8041    0.4079   -0.3416 H       1  UNL11       0.0477
     32 H          -1.1434   -0.7343   -0.9845 H       1  UNL11       0.1491
     33 H          -1.1487   -3.7236    4.8995 H       1  UNL11       0.4829
     34 H           1.7500   -0.3271    5.7143 H       1  UNL11       0.0627
     35 H           2.5272    1.6795    4.4089 H       1  UNL11       0.0618
     36 H           1.6002    2.0275    2.1540 H       1  UNL11       0.0618
     37 H          -0.0319    0.4901    1.1738 H       1  UNL11       0.0624
     38 H          -1.5791   -5.4510   -0.1009 H       1  UNL11       0.0626
     39 H          -2.1377   -7.5068    1.0780 H       1  UNL11       0.0646
     40 H           0.2707   -6.2970    4.3550 H       1  UNL11       0.0646
     41 H           0.8424   -4.2083    3.1640 H       1  UNL11       0.0626
@<TRIPOS>BOND
     1     1     2    2
     2     2     3   am
     3     2    20    1
     4     3     4    1
     5     3    27    1
     6     4     5    1
     7     4    28    1
     8     4    29    1
     9     5     6    1
    10     5    30    1
    11     5    31    1
    12     6     7   am
    13     6    32    1
    14     7     8    2
    15     7     9    1
    16     9    10    2
    17    10    11    1
    18    11    12   am
    19    11    33    1
    20    12    13    2
    21    12    14    1
    22    14    15   ar
    23    15    16   ar
    24    15    34    1
    25    16    17   ar
    26    16    35    1
    27    17    18   ar
    28    17    36    1
    29    18    19   ar
    30    18    37    1
    31    19     9    1
    32    19    14   ar
    33    20    21   ar
    34    21    22   ar
    35    21    38    1
    36    22    23   ar
    37    22    39    1
    38    23    24    1
    39    23    25   ar
    40    25    26   ar
    41    25    40    1
    42    26    20   ar
    43    26    41    1
@<TRIPOS>MOLECULE
*****
 41 43 0 0 0
SMALL
GASTEIGER

@<TRIPOS>ATOM
      1 O           3.1007   -3.6135   -1.0613 O.2     1  UNL11      -0.2702
      2 C           2.3401   -2.9815   -1.8607 C.2     1  UNL11       0.2441
      3 N           1.5243   -1.9454   -1.3625 N.am    1  UNL11      -0.3099
      4 C           1.5112   -1.5560    0.0551 C.3     1  UNL11       0.0275
      5 C           0.5420   -0.4344    0.3316 C.3     1  UNL11       0.0275
      6 N          -0.7711   -0.8722   -0.0166 N.am    1  UNL11      -0.3084
      7 C          -0.9417   -2.2144   -0.5346 C.2     1  UNL11       0.2688
      8 O           0.1133   -2.8466   -0.6185 O.2     1  UNL11      -0.2683
      9 C          -2.2904   -2.6177   -0.8732 C.2     1  UNL11       0.1988
     10 N          -3.3299   -1.7380   -0.6943 N.2     1  UNL11       0.0021
     11 N          -4.5811   -2.0318   -0.9787 N.am    1  UNL11      -0.0351
     12 C          -4.9521   -3.2244   -1.4715 C.2     1  UNL11       0.4383
     13 O          -6.1553   -3.4951   -1.7407 O.2     1  UNL11      -0.2116
     14 C          -3.9721   -4.1738   -1.6846 C.ar    1  UNL11       0.1009
     15 C          -4.3298   -5.4108   -2.1919 C.ar    1  UNL11      -0.0441
     16 C          -3.3641   -6.3573   -2.4059 C.ar    1  UNL11      -0.0608
     17 C          -2.0597   -6.0421   -2.1061 C.ar    1  UNL11      -0.0611
     18 C          -1.6853   -4.8067   -1.5970 C.ar    1  UNL11      -0.0513
     19 C          -2.6419   -3.8438   -1.3756 C.ar    1  UNL11       0.0282
     20 C           2.3274   -3.3365   -3.2560 C.ar    1  UNL11       0.0369
     21 C           3.1591   -4.3753   -3.6965 C.ar    1  UNL11      -0.0469
     22 C           3.2052   -4.7755   -5.0134 C.ar    1  UNL11      -0.0257
     23 C           2.4284   -4.1649   -5.9572 C.ar    1  UNL11       0.1234
     24 F           2.4833   -4.5686   -7.2499 F       1  UNL11      -0.2055
     25 C           1.6049   -3.1432   -5.5467 C.ar    1  UNL11      -0.0257
     26 C           1.5565   -2.7358   -4.2125 C.ar    1  UNL11      -0.0469
     27 H           0.9072   -1.4387   -2.0358 H       1  UNL11       0.1491
     28 H           2.5313   -1.3306    0.3616 H       1  UNL11       0.0477
     29 H           1.2205   -2.4952    0.5958 H       1  UNL11       0.0477
     30 H           0.6464   -0.1608    1.4030 H       1  UNL11       0.0477
     31 H           0.8041    0.4079   -0.3416 H       1  UNL11       0.0477
     32 H          -1.5958   -0.2390    0.0987 H       1  UNL11       0.1491
     33 H          -5.3501   -1.3372   -0.8302 H       1  UNL11       0.4829
     34 H          -5.3941   -5.5926   -2.4088 H       1  UNL11       0.0627
     35 H          -3.6310   -7.3438   -2.8079 H       1  UNL11       0.0618
     36 H          -1.2940   -6.7815   -2.2717 H       1  UNL11       0.0618
     37 H          -0.6619   -4.5943   -1.3746 H       1  UNL11       0.0624
     38 H           3.7947   -4.8864   -2.9681 H       1  UNL11       0.0626
     39 H           3.8746   -5.5927   -5.2968 H       1  UNL11       0.0646
     40 H           0.9832   -2.6541   -6.3004 H       1  UNL11       0.0646
     41 H           0.8966   -1.9323   -3.9384 H       1  UNL11       0.0626
@<TRIPOS>BOND
     1     1     2    2
     2     2     3   am
     3     2    20    1
     4     3     4    1
     5     3    27    1
     6     4     5    1
     7     4    28    1
     8     4    29    1
     9     5     6    1
    10     5    30    1
    11     5    31    1
    12     6     7   am
    13     6    32    1
    14     7     8    2
    15     7     9    1
    16     9    10    2
    17    10    11    1
    18    11    12   am
    19    11    33    1
    20    12    13    2
    21    12    14    1
    22    14    15   ar
    23    15    16   ar
    24    15    34    1
    25    16    17   ar
    26    16    35    1
    27    17    18   ar
    28    17    36    1
    29    18    19   ar
    30    18    37    1
    31    19     9    1
    32    19    14   ar
    33    20    21   ar
    34    21    22   ar
    35    21    38    1
    36    22    23   ar
    37    22    39    1
    38    23    24    1
    39    23    25   ar
    40    25    26   ar
    41    25    40    1
    42    26    20   ar
    43    26    41    1
@<TRIPOS>MOLECULE
*****
 41 43 0 0 0
SMALL
GASTEIGER

@<TRIPOS>ATOM
      1 O          -0.6549   -1.8341    1.8542 O.2     1  UNL11      -0.2702
      2 C           0.0957   -2.8493    1.7023 C.2     1  UNL11       0.2441
      3 N           1.1913   -2.7709    0.8187 N.am    1  UNL11      -0.3099
      4 C           1.5112   -1.5560    0.0551 C.3     1  UNL11       0.0275
      5 C           0.5420   -0.4344    0.3316 C.3     1  UNL11       0.0275
      6 N          -0.7711   -0.8722   -0.0166 N.am    1  UNL11      -0.3084
      7 C          -1.2449   -0.6435   -1.3665 C.2     1  UNL11       0.2688
      8 O          -2.3934   -1.0477   -1.5593 O.2     1  UNL11      -0.2683
      9 C          -0.3298    0.0105   -2.2782 C.2     1  UNL11       0.1988
     10 N          -0.3870   -0.2726   -3.6210 N.2     1  UNL11       0.0021
     11 N           0.4104    0.2809   -4.5100 N.am    1  UNL11      -0.0351
     12 C           1.3550    1.1760   -4.1792 C.2     1  UNL11       0.4383
     13 O           2.1143    1.7006   -5.0404 O.2     1  UNL11      -0.2116
     14 C           1.4859    1.5223   -2.8487 C.ar    1  UNL11       0.1009
     15 C           2.4524    2.4429   -2.4829 C.ar    1  UNL11      -0.0441
     16 C           2.5885    2.7914   -1.1660 C.ar    1  UNL11      -0.0608
     17 C           1.7514    2.2084   -0.2440 C.ar    1  UNL11      -0.0611
     18 C           0.7777    1.2841   -0.5950 C.ar    1  UNL11      -0.0513
     19 C           0.6268    0.9221   -1.9131 C.ar    1  UNL11       0.0282
     20 C          -0.1883   -4.0560    2.4344 C.ar    1  UNL11       0.0369
     21 C          -1.5174   -4.3421    2.7761 C.ar    1  UNL11      -0.0469
     22 C          -1.8722   -5.4749    3.4743 C.ar    1  UNL11      -0.0257
     23 C          -0.9259   -6.3788    3.8675 C.ar    1  UNL11       0.1234
     24 F          -1.2887   -7.4896    4.5542 F       1  UNL11      -0.2055
     25 C           0.3844   -6.1177    3.5427 C.ar    1  UNL11      -0.0257
     26 C           0.7463   -4.9703    2.8350 C.ar    1  UNL11      -0.0469
     27 H           1.7953   -3.6158    0.7086 H       1  UNL11       0.1491
     28 H           1.5791   -1.8179   -0.9995 H       1  UNL11       0.0477
     29 H           2.5517   -1.2919    0.3813 H       1  UNL11       0.0477
     30 H           0.6464   -0.1608    1.4030 H       1  UNL11       0.0477
     31 H           0.8041    0.4079   -0.3416 H       1  UNL11       0.0477
     32 H          -1.3816   -1.3489    0.6865 H       1  UNL11       0.1491
     33 H           0.3400    0.0425   -5.5269 H       1  UNL11       0.4829
     34 H           3.0872    2.8689   -3.2757 H       1  UNL11       0.0627
     35 H           3.3503    3.5203   -0.8590 H       1  UNL11       0.0618
     36 H           1.8522    2.4774    0.7941 H       1  UNL11       0.0618
     37 H           0.1433    0.8497    0.1471 H       1  UNL11       0.0624
     38 H          -2.3010   -3.6403    2.4774 H       1  UNL11       0.0626
     39 H          -2.9264   -5.6436    3.7119 H       1  UNL11       0.0646
     40 H           1.1419   -6.8397    3.8565 H       1  UNL11       0.0646
     41 H           1.7839   -4.8087    2.6032 H       1  UNL11       0.0626
@<TRIPOS>BOND
     1     1     2    2
     2     2     3   am
     3     2    20    1
     4     3     4    1
     5     3    27    1
     6     4     5    1
     7     4    28    1
     8     4    29    1
     9     5     6    1
    10     5    30    1
    11     5    31    1
    12     6     7   am
    13     6    32    1
    14     7     8    2
    15     7     9    1
    16     9    10    2
    17    10    11    1
    18    11    12   am
    19    11    33    1
    20    12    13    2
    21    12    14    1
    22    14    15   ar
    23    15    16   ar
    24    15    34    1
    25    16    17   ar
    26    16    35    1
    27    17    18   ar
    28    17    36    1
    29    18    19   ar
    30    18    37    1
    31    19     9    1
    32    19    14   ar
    33    20    21   ar
    34    21    22   ar
    35    21    38    1
    36    22    23   ar
    37    22    39    1
    38    23    24    1
    39    23    25   ar
    40    25    26   ar
    41    25    40    1
    42    26    20   ar
    43    26    41    1
@<TRIPOS>MOLECULE
*****
 41 43 0 0 0
SMALL
GASTEIGER

@<TRIPOS>ATOM
      1 O           5.1473   -1.7042    0.5542 O.2     1  UNL11      -0.2702
      2 C           3.9791   -2.0778    0.2187 C.2     1  UNL11       0.2441
      3 N           2.8939   -1.1969    0.4022 N.am    1  UNL11      -0.3099
      4 C           1.5112   -1.5560    0.0551 C.3     1  UNL11       0.0275
      5 C           0.5420   -0.4344    0.3316 C.3     1  UNL11       0.0275
      6 N          -0.7711   -0.8722   -0.0166 N.am    1  UNL11      -0.3084
      7 C          -1.5820   -1.5134    0.9985 C.2     1  UNL11       0.2688
      8 O          -1.0169   -1.6106    2.0898 O.2     1  UNL11      -0.2683
      9 C          -2.9077   -1.9400    0.6026 C.2     1  UNL11       0.1988
     10 N          -3.5788   -1.2550   -0.3807 N.2     1  UNL11       0.0021
     11 N          -4.7850   -1.5824   -0.7937 N.am    1  UNL11      -0.0351
     12 C          -5.4684   -2.6208   -0.2863 C.2     1  UNL11       0.4383
     13 O          -6.6249   -2.9256   -0.6902 O.2     1  UNL11      -0.2116
     14 C          -4.8711   -3.3689    0.7092 C.ar    1  UNL11       0.1009
     15 C          -5.5556   -4.4443    1.2479 C.ar    1  UNL11      -0.0441
     16 C          -4.9704   -5.1906    2.2351 C.ar    1  UNL11      -0.0608
     17 C          -3.7103   -4.8419    2.6606 C.ar    1  UNL11      -0.0611
     18 C          -3.0112   -3.7667    2.1304 C.ar    1  UNL11      -0.0513
     19 C          -3.5835   -3.0058    1.1382 C.ar    1  UNL11       0.0282
     20 C           3.7887   -3.3907   -0.3408 C.ar    1  UNL11       0.0369
     21 C           4.8342   -3.9719   -1.0717 C.ar    1  UNL11      -0.0469
     22 C           4.7320   -5.2230   -1.6380 C.ar    1  UNL11      -0.0257
     23 C           3.5879   -5.9584   -1.5067 C.ar    1  UNL11       0.1234
     24 F           3.5005   -7.1885   -2.0692 F       1  UNL11      -0.2055
     25 C           2.5496   -5.4072   -0.7936 C.ar    1  UNL11      -0.0257
     26 C           2.6509   -4.1393   -0.2187 C.ar    1  UNL11      -0.0469
     27 H           3.0900   -0.2522    0.8021 H       1  UNL11       0.1491
     28 H           1.2558   -2.4831    0.5657 H       1  UNL11       0.0477
     29 H           1.5569   -1.8016   -1.0387 H       1  UNL11       0.0477
     30 H           0.6464   -0.1608    1.4030 H       1  UNL11       0.0477
     31 H           0.8041    0.4079   -0.3416 H       1  UNL11       0.0477
     32 H          -1.1434   -0.7343   -0.9845 H       1  UNL11       0.1491
     33 H          -5.2685   -1.0383   -1.5461 H       1  UNL11       0.4829
     34 H          -6.5616   -4.6648    0.8578 H       1  UNL11       0.0627
     35 H          -5.4999   -6.0472    2.6733 H       1  UNL11       0.0618
     36 H          -3.2429   -5.4242    3.4370 H       1  UNL11       0.0618
     37 H          -2.0328   -3.5227    2.4841 H       1  UNL11       0.0624
     38 H           5.7648   -3.4114   -1.1968 H       1  UNL11       0.0626
     39 H           5.5823   -5.6236   -2.1973 H       1  UNL11       0.0646
     40 H           1.6342   -5.9942   -0.6879 H       1  UNL11       0.0646
     41 H           1.8126   -3.7496    0.3306 H       1  UNL11       0.0626
@<TRIPOS>BOND
     1     1     2    2
     2     2     3   am
     3     2    20    1
     4     3     4    1
     5     3    27    1
     6     4     5    1
     7     4    28    1
     8     4    29    1
     9     5     6    1
    10     5    30    1
    11     5    31    1
    12     6     7   am
    13     6    32    1
    14     7     8    2
    15     7     9    1
    16     9    10    2
    17    10    11    1
    18    11    12   am
    19    11    33    1
    20    12    13    2
    21    12    14    1
    22    14    15   ar
    23    15    16   ar
    24    15    34    1
    25    16    17   ar
    26    16    35    1
    27    17    18   ar
    28    17    36    1
    29    18    19   ar
    30    18    37    1
    31    19     9    1
    32    19    14   ar
    33    20    21   ar
    34    21    22   ar
    35    21    38    1
    36    22    23   ar
    37    22    39    1
    38    23    24    1
    39    23    25   ar
    40    25    26   ar
    41    25    40    1
    42    26    20   ar
    43    26    41    1
@<TRIPOS>MOLECULE
*****
 41 43 0 0 0
SMALL
GASTEIGER

@<TRIPOS>ATOM
      1 O           1.6193   -4.9656    1.4174 O.2     1  UNL11      -0.2702
      2 C           1.9636   -3.9474    0.7378 C.2     1  UNL11       0.2441
      3 N           1.1913   -2.7709    0.8187 N.am    1  UNL11      -0.3099
      4 C           1.5112   -1.5560    0.0551 C.3     1  UNL11       0.0275
      5 C           0.5420   -0.4344    0.3316 C.3     1  UNL11       0.0275
      6 N          -0.7711   -0.8722   -0.0166 N.am    1  UNL11      -0.3084
      7 C          -0.9197   -1.8514   -1.0740 C.2     1  UNL11       0.2688
      8 O          -2.0929   -2.1519   -1.3042 O.2     1  UNL11      -0.2683
      9 C           0.2964   -2.3292   -1.6978 C.2     1  UNL11       0.1988
     10 N           1.5124   -1.8488   -1.2770 N.2     1  UNL11       0.0021
     11 N           2.6593   -2.2348   -1.7948 N.am    1  UNL11      -0.0351
     12 C           2.7406   -3.1375   -2.7856 C.2     1  UNL11       0.4383
     13 O           3.8464   -3.5003   -3.2746 O.2     1  UNL11      -0.2116
     14 C           1.5661   -3.6760   -3.2732 C.ar    1  UNL11       0.1009
     15 C           1.6241   -4.6084   -4.2943 C.ar    1  UNL11      -0.0441
     16 C           0.4642   -5.1468   -4.7831 C.ar    1  UNL11      -0.0608
     17 C          -0.7294   -4.7381   -4.2365 C.ar    1  UNL11      -0.0611
     18 C          -0.8039   -3.8045   -3.2126 C.ar    1  UNL11      -0.0513
     19 C           0.3509   -3.2530   -2.7093 C.ar    1  UNL11       0.0282
     20 C           3.1331   -4.0168   -0.0991 C.ar    1  UNL11       0.0369
     21 C           3.1750   -3.2430   -1.2672 C.ar    1  UNL11      -0.0469
     22 C           4.2562   -3.2524   -2.1201 C.ar    1  UNL11      -0.0257
     23 C           5.3485   -4.0296   -1.8556 C.ar    1  UNL11       0.1234
     24 F           6.4060   -4.0296   -2.7033 F       1  UNL11      -0.2055
     25 C           5.3284   -4.7968   -0.7147 C.ar    1  UNL11      -0.0257
     26 C           4.2337   -4.7889    0.1512 C.ar    1  UNL11      -0.0469
     27 H           0.3590   -2.7717    1.4496 H       1  UNL11       0.1491
     28 H           1.5791   -1.8179   -0.9995 H       1  UNL11       0.0477
     29 H           2.5517   -1.2919    0.3813 H       1  UNL11       0.0477
     30 H           0.6464   -0.1608    1.4030 H       1  UNL11       0.0477
     31 H           0.8041    0.4079   -0.3416 H       1  UNL11       0.0477
     32 H          -1.6113   -0.4954    0.4798 H       1  UNL11       0.1491
     33 H           3.5691   -1.8482   -1.4504 H       1  UNL11       0.4829
     34 H           2.6157   -4.8883   -4.6832 H       1  UNL11       0.0627
     35 H           0.4927   -5.8878   -5.5932 H       1  UNL11       0.0618
     36 H          -1.6464   -5.1571   -4.6157 H       1  UNL11       0.0618
     37 H          -1.7486   -3.5086   -2.8101 H       1  UNL11       0.0624
     38 H           2.3178   -2.6089   -1.5103 H       1  UNL11       0.0626
     39 H           4.2304   -2.6268   -3.0168 H       1  UNL11       0.0646
     40 H           6.2012   -5.4187   -0.5020 H       1  UNL11       0.0646
     41 H           4.2635   -5.4052    1.0319 H       1  UNL11       0.0626
@<TRIPOS>BOND
     1     1     2    2
     2     2     3   am
     3     2    20    1
     4     3     4    1
     5     3    27    1
     6     4     5    1
     7     4    28    1
     8     4    29    1
     9     5     6    1
    10     5    30    1
    11     5    31    1
    12     6     7   am
    13     6    32    1
    14     7     8    2
    15     7     9    1
    16     9    10    2
    17    10    11    1
    18    11    12   am
    19    11    33    1
    20    12    13    2
    21    12    14    1
    22    14    15   ar
    23    15    16   ar
    24    15    34    1
    25    16    17   ar
    26    16    35    1
    27    17    18   ar
    28    17    36    1
    29    18    19   ar
    30    18    37    1
    31    19     9    1
    32    19    14   ar
    33    20    21   ar
    34    21    22   ar
    35    21    38    1
    36    22    23   ar
    37    22    39    1
    38    23    24    1
    39    23    25   ar
    40    25    26   ar
    41    25    40    1
    42    26    20   ar
    43    26    41    1
@<TRIPOS>MOLECULE
*****
 41 43 0 0 0
SMALL
GASTEIGER

@<TRIPOS>ATOM
      1 O           4.8354   -1.5308    1.6176 O.2     1  UNL11      -0.2702
      2 C           3.6487   -1.9068    1.3580 C.2     1  UNL11       0.2441
      3 N           2.8939   -1.1969    0.4022 N.am    1  UNL11      -0.3099
      4 C           1.5112   -1.5560    0.0551 C.3     1  UNL11       0.0275
      5 C           0.5420   -0.4344    0.3316 C.3     1  UNL11       0.0275
      6 N          -0.7711   -0.8722   -0.0166 N.am    1  UNL11      -0.3084
      7 C          -1.4990   -0.1442   -1.0360 C.2     1  UNL11       0.2688
      8 O          -0.8716    0.8095   -1.5013 O.2     1  UNL11      -0.2683
      9 C          -2.8264   -0.6236   -1.3593 C.2     1  UNL11       0.1988
     10 N          -3.3209   -0.4559   -2.6296 N.2     1  UNL11       0.0021
     11 N          -4.5166   -0.8645   -2.9985 N.am    1  UNL11      -0.0351
     12 C          -5.3620   -1.4845   -2.1595 C.2     1  UNL11       0.4383
     13 O          -6.5066   -1.8721   -2.5244 O.2     1  UNL11      -0.2116
     14 C          -4.9491   -1.6968   -0.8589 C.ar    1  UNL11       0.1009
     15 C          -5.8028   -2.3339    0.0246 C.ar    1  UNL11      -0.0441
     16 C          -5.4008   -2.5479    1.3156 C.ar    1  UNL11      -0.0608
     17 C          -4.1504   -2.1181    1.6926 C.ar    1  UNL11      -0.0611
     18 C          -3.2831   -1.4780    0.8186 C.ar    1  UNL11      -0.0513
     19 C          -3.6700   -1.2544   -0.4819 C.ar    1  UNL11       0.0282
     20 C           3.1009   -3.0477    2.0445 C.ar    1  UNL11       0.0369
     21 C           1.7198   -3.0958    2.2796 C.ar    1  UNL11      -0.0469
     22 C           1.1182   -4.1512    2.9282 C.ar    1  UNL11      -0.0257
     23 C           1.8573   -5.2100    3.3751 C.ar    1  UNL11       0.1234
     24 F           1.2526   -6.2423    4.0121 F       1  UNL11      -0.2055
     25 C           3.2143   -5.1832    3.1550 C.ar    1  UNL11      -0.0257
     26 C           3.8262   -4.1146    2.4978 C.ar    1  UNL11      -0.0469
     27 H           3.3439   -0.3834   -0.0739 H       1  UNL11       0.1491
     28 H           1.2558   -2.4831    0.5657 H       1  UNL11       0.0477
     29 H           1.5569   -1.8016   -1.0387 H       1  UNL11       0.0477
     30 H           0.6464   -0.1608    1.4030 H       1  UNL11       0.0477
     31 H           0.8041    0.4079   -0.3416 H       1  UNL11       0.0477
     32 H          -1.2020   -1.7017    0.4530 H       1  UNL11       0.1491
     33 H          -4.8629   -0.7206   -3.9759 H       1  UNL11       0.4829
     34 H          -6.7897   -2.6507   -0.3475 H       1  UNL11       0.0627
     35 H          -6.0661   -3.0520    2.0294 H       1  UNL11       0.0618
     36 H          -3.8267   -2.2828    2.7067 H       1  UNL11       0.0618
     37 H          -2.3174   -1.1564    1.1442 H       1  UNL11       0.0624
     38 H           1.0974   -2.2651    1.9354 H       1  UNL11       0.0626
     39 H           0.0356   -4.1319    3.0824 H       1  UNL11       0.0646
     40 H           3.8063   -6.0293    3.5118 H       1  UNL11       0.0646
     41 H           4.8908   -4.1380    2.3479 H       1  UNL11       0.0626
@<TRIPOS>BOND
     1     1     2    2
     2     2     3   am
     3     2    20    1
     4     3     4    1
     5     3    27    1
     6     4     5    1
     7     4    28    1
     8     4    29    1
     9     5     6    1
    10     5    30    1
    11     5    31    1
    12     6     7   am
    13     6    32    1
    14     7     8    2
    15     7     9    1
    16     9    10    2
    17    10    11    1
    18    11    12   am
    19    11    33    1
    20    12    13    2
    21    12    14    1
    22    14    15   ar
    23    15    16   ar
    24    15    34    1
    25    16    17   ar
    26    16    35    1
    27    17    18   ar
    28    17    36    1
    29    18    19   ar
    30    18    37    1
    31    19     9    1
    32    19    14   ar
    33    20    21   ar
    34    21    22   ar
    35    21    38    1
    36    22    23   ar
    37    22    39    1
    38    23    24    1
    39    23    25   ar
    40    25    26   ar
    41    25    40    1
    42    26    20   ar
    43    26    41    1
@<TRIPOS>MOLECULE
*****
 41 43 0 0 0
SMALL
GASTEIGER

@<TRIPOS>ATOM
      1 O           2.6133   -2.7619   -3.2349 O.2     1  UNL11      -0.2702
      2 C           2.6715   -2.4584   -2.0013 C.2     1  UNL11       0.2441
      3 N           1.5243   -1.9454   -1.3625 N.am    1  UNL11      -0.3099
      4 C           1.5112   -1.5560    0.0551 C.3     1  UNL11       0.0275
      5 C           0.5420   -0.4344    0.3316 C.3     1  UNL11       0.0275
      6 N          -0.7711   -0.8722   -0.0166 N.am    1  UNL11      -0.3084
      7 C          -1.0262   -1.2879   -1.3808 C.2     1  UNL11       0.2688
      8 O          -2.1924   -1.6351   -1.5788 O.2     1  UNL11      -0.2683
      9 C           0.0925   -1.2396   -2.2987 C.2     1  UNL11       0.1988
     10 N           0.1587   -2.1327   -3.3400 N.2     1  UNL11       0.0021
     11 N           1.1427   -2.1507   -4.2141 N.am    1  UNL11      -0.0351
     12 C           2.1737   -1.2919   -4.1633 C.2     1  UNL11       0.4383
     13 O           3.1121   -1.3184   -5.0072 O.2     1  UNL11      -0.2116
     14 C           2.1915   -0.3560   -3.1479 C.ar    1  UNL11       0.1009
     15 C           3.2438    0.5400   -3.0745 C.ar    1  UNL11      -0.0441
     16 C           3.2687    1.4707   -2.0709 C.ar    1  UNL11      -0.0608
     17 C           2.2369    1.4825   -1.1622 C.ar    1  UNL11      -0.0611
     18 C           1.1752    0.5910   -1.2224 C.ar    1  UNL11      -0.0513
     19 C           1.1335   -0.3508   -2.2236 C.ar    1  UNL11       0.0282
     20 C           3.9056   -2.6445   -1.2835 C.ar    1  UNL11       0.0369
     21 C           4.2013   -1.7874   -0.2144 C.ar    1  UNL11      -0.0469
     22 C           5.3593   -1.8994    0.5224 C.ar    1  UNL11      -0.0257
     23 C           6.2802   -2.8670    0.2346 C.ar    1  UNL11       0.1234
     24 F           7.4159   -2.9661    0.9678 F       1  UNL11      -0.2055
     25 C           6.0101   -3.7187   -0.8104 C.ar    1  UNL11      -0.0257
     26 C           4.8371   -3.6071   -1.5586 C.ar    1  UNL11      -0.0469
     27 H           0.6523   -1.8408   -1.9277 H       1  UNL11       0.1491
     28 H           2.5313   -1.3306    0.3616 H       1  UNL11       0.0477
     29 H           1.2205   -2.4952    0.5958 H       1  UNL11       0.0477
     30 H           0.6464   -0.1608    1.4030 H       1  UNL11       0.0477
     31 H           0.8041    0.4079   -0.3416 H       1  UNL11       0.0477
     32 H          -1.5361   -0.8936    0.6966 H       1  UNL11       0.1491
     33 H           1.1623   -2.8457   -4.9967 H       1  UNL11       0.4829
     34 H           4.0353    0.4716   -3.8371 H       1  UNL11       0.0627
     35 H           4.0963    2.1890   -1.9983 H       1  UNL11       0.0618
     36 H           2.2493    2.2118   -0.3696 H       1  UNL11       0.0618
     37 H           0.3889    0.6274   -0.4996 H       1  UNL11       0.0624
     38 H           3.4865   -1.0012    0.0439 H       1  UNL11       0.0626
     39 H           5.5344   -1.2007    1.3455 H       1  UNL11       0.0646
     40 H           6.7456   -4.4928   -1.0415 H       1  UNL11       0.0646
     41 H           4.6688   -4.2963   -2.3667 H       1  UNL11       0.0626
@<TRIPOS>BOND
     1     1     2    2
     2     2     3   am
     3     2    20    1
     4     3     4    1
     5     3    27    1
     6     4     5    1
     7     4    28    1
     8     4    29    1
     9     5     6    1
    10     5    30    1
    11     5    31    1
    12     6     7   am
    13     6    32    1
    14     7     8    2
    15     7     9    1
    16     9    10    2
    17    10    11    1
    18    11    12   am
    19    11    33    1
    20    12    13    2
    21    12    14    1
    22    14    15   ar
    23    15    16   ar
    24    15    34    1
    25    16    17   ar
    26    16    35    1
    27    17    18   ar
    28    17    36    1
    29    18    19   ar
    30    18    37    1
    31    19     9    1
    32    19    14   ar
    33    20    21   ar
    34    21    22   ar
    35    21    38    1
    36    22    23   ar
    37    22    39    1
    38    23    24    1
    39    23    25   ar
    40    25    26   ar
    41    25    40    1
    42    26    20   ar
    43    26    41    1
@<TRIPOS>MOLECULE
*****
 41 43 0 0 0
SMALL
GASTEIGER

@<TRIPOS>ATOM
      1 O           0.7657   -1.7209   -3.5379 O.2     1  UNL11      -0.2702
      2 C           0.7116   -1.3226   -2.3315 C.2     1  UNL11       0.2441
      3 N           1.5243   -1.9454   -1.3625 N.am    1  UNL11      -0.3099
      4 C           1.5112   -1.5560    0.0551 C.3     1  UNL11       0.0275
      5 C           0.5420   -0.4344    0.3316 C.3     1  UNL11       0.0275
      6 N          -0.7711   -0.8722   -0.0166 N.am    1  UNL11      -0.3084
      7 C          -0.9417   -2.2144   -0.5346 C.2     1  UNL11       0.2688
      8 O          -2.1105   -2.4880   -0.8152 O.2     1  UNL11      -0.2683
      9 C           0.2510   -3.0274   -0.6486 C.2     1  UNL11       0.1988
     10 N           1.4667   -2.5101   -0.2734 N.2     1  UNL11       0.0021
     11 N           2.5931   -3.1871   -0.3478 N.am    1  UNL11      -0.0351
     12 C           2.6517   -4.4501   -0.8000 C.2     1  UNL11       0.4383
     13 O           3.7379   -5.0898   -0.8669 O.2     1  UNL11      -0.2116
     14 C           1.4756   -5.0531   -1.2004 C.ar    1  UNL11       0.1009
     15 C           1.5104   -6.3545   -1.6702 C.ar    1  UNL11      -0.0441
     16 C           0.3488   -6.9592   -2.0691 C.ar    1  UNL11      -0.0608
     17 C          -0.8233   -6.2449   -1.9880 C.ar    1  UNL11      -0.0611
     18 C          -0.8744   -4.9397   -1.5193 C.ar    1  UNL11      -0.0513
     19 C           0.2825   -4.3164   -1.1144 C.ar    1  UNL11       0.0282
     20 C          -0.1771   -0.2457   -1.9802 C.ar    1  UNL11       0.0369
     21 C          -1.3563   -0.0746   -2.7187 C.ar    1  UNL11      -0.0469
     22 C          -2.2583    0.9297   -2.4462 C.ar    1  UNL11      -0.0257
     23 C          -2.0345    1.8129   -1.4279 C.ar    1  UNL11       0.1234
     24 F          -2.9305    2.7969   -1.1703 F       1  UNL11      -0.2055
     25 C          -0.8837    1.6632   -0.6905 C.ar    1  UNL11      -0.0257
     26 C           0.0320    0.6461   -0.9649 C.ar    1  UNL11      -0.0469
     27 H           2.1587   -2.7144   -1.6738 H       1  UNL11       0.1491
     28 H           2.5313   -1.3306    0.3616 H       1  UNL11       0.0477
     29 H           1.2205   -2.4952    0.5958 H       1  UNL11       0.0477
     30 H           0.6464   -0.1608    1.4030 H       1  UNL11       0.0477
     31 H           0.8041    0.4079   -0.3416 H       1  UNL11       0.0477
     32 H          -1.5958   -0.2390    0.0987 H       1  UNL11       0.1491
     33 H           3.5034   -2.7624   -0.0532 H       1  UNL11       0.4829
     34 H           2.4855   -6.8650   -1.7070 H       1  UNL11       0.0627
     35 H           0.3590   -7.9912   -2.4443 H       1  UNL11       0.0618
     36 H          -1.7415   -6.7137   -2.2999 H       1  UNL11       0.0618
     37 H          -1.8027   -4.4127   -1.4693 H       1  UNL11       0.0624
     38 H          -1.5676   -0.7635   -3.5412 H       1  UNL11       0.0626
     39 H          -3.1612    1.0127   -3.0578 H       1  UNL11       0.0646
     40 H          -0.7036    2.3688    0.1240 H       1  UNL11       0.0646
     41 H           0.9181    0.5680   -0.3607 H       1  UNL11       0.0626
@<TRIPOS>BOND
     1     1     2    2
     2     2     3   am
     3     2    20    1
     4     3     4    1
     5     3    27    1
     6     4     5    1
     7     4    28    1
     8     4    29    1
     9     5     6    1
    10     5    30    1
    11     5    31    1
    12     6     7   am
    13     6    32    1
    14     7     8    2
    15     7     9    1
    16     9    10    2
    17    10    11    1
    18    11    12   am
    19    11    33    1
    20    12    13    2
    21    12    14    1
    22    14    15   ar
    23    15    16   ar
    24    15    34    1
    25    16    17   ar
    26    16    35    1
    27    17    18   ar
    28    17    36    1
    29    18    19   ar
    30    18    37    1
    31    19     9    1
    32    19    14   ar
    33    20    21   ar
    34    21    22   ar
    35    21    38    1
    36    22    23   ar
    37    22    39    1
    38    23    24    1
    39    23    25   ar
    40    25    26   ar
    41    25    40    1
    42    26    20   ar
    43    26    41    1
@<TRIPOS>MOLECULE
*****
 41 43 0 0 0
SMALL
GASTEIGER

@<TRIPOS>ATOM
      1 O           0.8729   -3.8862    2.8219 O.2     1  UNL11      -0.2702
      2 C           1.1434   -2.7952    2.2274 C.2     1  UNL11       0.2441
      3 N           1.1913   -2.7709    0.8187 N.am    1  UNL11      -0.3099
      4 C           1.5112   -1.5560    0.0551 C.3     1  UNL11       0.0275
      5 C           0.5420   -0.4344    0.3316 C.3     1  UNL11       0.0275
      6 N          -0.7711   -0.8722   -0.0166 N.am    1  UNL11      -0.3084
      7 C          -1.4990   -0.1442   -1.0360 C.2     1  UNL11       0.2688
      8 O          -2.6255   -0.5956   -1.2525 O.2     1  UNL11      -0.2683
      9 C          -0.8221    0.9824   -1.6434 C.2     1  UNL11       0.1988
     10 N          -1.0977    1.3218   -2.9455 N.2     1  UNL11       0.0021
     11 N          -0.5237    2.3312   -3.5652 N.am    1  UNL11      -0.0351
     12 C           0.3869    3.1218   -2.9746 C.2     1  UNL11       0.4383
     13 O           0.9310    4.0873   -3.5789 O.2     1  UNL11      -0.2116
     14 C           0.7271    2.8552   -1.6630 C.ar    1  UNL11       0.1009
     15 C           1.6633    3.6561   -1.0325 C.ar    1  UNL11      -0.0441
     16 C           2.0060    3.3982    0.2675 C.ar    1  UNL11      -0.0608
     17 C           1.4015    2.3420    0.9075 C.ar    1  UNL11      -0.0611
     18 C           0.4613    1.5300    0.2891 C.ar    1  UNL11      -0.0513
     19 C           0.1050    1.7741   -1.0165 C.ar    1  UNL11       0.0282
     20 C           1.3950   -1.6089    3.0036 C.ar    1  UNL11       0.0369
     21 C           0.7661   -1.4701    4.2486 C.ar    1  UNL11      -0.0469
     22 C           0.9545   -0.3672    5.0515 C.ar    1  UNL11      -0.0257
     23 C           1.7760    0.6515    4.6584 C.ar    1  UNL11       0.1234
     24 F           1.9526    1.7314    5.4582 F       1  UNL11      -0.2055
     25 C           2.4031    0.5358    3.4403 C.ar    1  UNL11      -0.0257
     26 C           2.2137   -0.5811    2.6248 C.ar    1  UNL11      -0.0469
     27 H           0.9899   -3.6575    0.3047 H       1  UNL11       0.1491
     28 H           1.5791   -1.8179   -0.9995 H       1  UNL11       0.0477
     29 H           2.5517   -1.2919    0.3813 H       1  UNL11       0.0477
     30 H           0.6464   -0.1608    1.4030 H       1  UNL11       0.0477
     31 H           0.8041    0.4079   -0.3416 H       1  UNL11       0.0477
     32 H          -1.2020   -1.7017    0.4530 H       1  UNL11       0.1491
     33 H          -0.7569    2.5628   -4.5591 H       1  UNL11       0.4829
     34 H           2.1061    4.4846   -1.6074 H       1  UNL11       0.0627
     35 H           2.7471    4.0241    0.7824 H       1  UNL11       0.0618
     36 H           1.6658    2.1326    1.9305 H       1  UNL11       0.0618
     37 H           0.0104    0.7167    0.8155 H       1  UNL11       0.0624
     38 H           0.1016   -2.2665    4.5950 H       1  UNL11       0.0626
     39 H           0.4360   -0.3158    6.0131 H       1  UNL11       0.0646
     40 H           3.0602    1.3497    3.1248 H       1  UNL11       0.0646
     41 H           2.7258   -0.6276    1.6804 H       1  UNL11       0.0626
@<TRIPOS>BOND
     1     1     2    2
     2     2     3   am
     3     2    20    1
     4     3     4    1
     5     3    27    1
     6     4     5    1
     7     4    28    1
     8     4    29    1
     9     5     6    1
    10     5    30    1
    11     5    31    1
    12     6     7   am
    13     6    32    1
    14     7     8    2
    15     7     9    1
    16     9    10    2
    17    10    11    1
    18    11    12   am
    19    11    33    1
    20    12    13    2
    21    12    14    1
    22    14    15   ar
    23    15    16   ar
    24    15    34    1
    25    16    17   ar
    26    16    35    1
    27    17    18   ar
    28    17    36    1
    29    18    19   ar
    30    18    37    1
    31    19     9    1
    32    19    14   ar
    33    20    21   ar
    34    21    22   ar
    35    21    38    1
    36    22    23   ar
    37    22    39    1
    38    23    24    1
    39    23    25   ar
    40    25    26   ar
    41    25    40    1
    42    26    20   ar
    43    26    41    1
@<TRIPOS>MOLECULE
*****
 41 43 0 0 0
SMALL
GASTEIGER

@<TRIPOS>ATOM
      1 O           3.7459   -2.5950   -1.3351 O.2     1  UNL11      -0.2702
      2 C           2.6715   -2.4584   -2.0013 C.2     1  UNL11       0.2441
      3 N           1.5243   -1.9454   -1.3625 N.am    1  UNL11      -0.3099
      4 C           1.5112   -1.5560    0.0551 C.3     1  UNL11       0.0275
      5 C           0.5420   -0.4344    0.3316 C.3     1  UNL11       0.0275
      6 N          -0.7711   -0.8722   -0.0166 N.am    1  UNL11      -0.3084
      7 C          -0.9417   -2.2144   -0.5346 C.2     1  UNL11       0.2688
      8 O           0.1133   -2.8466   -0.6185 O.2     1  UNL11      -0.2683
      9 C          -2.2904   -2.6177   -0.8732 C.2     1  UNL11       0.1988
     10 N          -2.6548   -3.9374   -0.7640 N.2     1  UNL11       0.0021
     11 N          -3.8605   -4.3796   -1.0531 N.am    1  UNL11      -0.0351
     12 C          -4.8449   -3.5737   -1.4824 C.2     1  UNL11       0.4383
     13 O          -5.9977   -4.0090   -1.7567 O.2     1  UNL11      -0.2116
     14 C          -4.5695   -2.2277   -1.6226 C.ar    1  UNL11       0.1009
     15 C          -5.5681   -1.3770   -2.0636 C.ar    1  UNL11      -0.0441
     16 C          -5.3029   -0.0414   -2.2053 C.ar    1  UNL11      -0.0608
     17 C          -4.0410    0.4120   -1.9011 C.ar    1  UNL11      -0.0611
     18 C          -3.0294   -0.4282   -1.4579 C.ar    1  UNL11      -0.0513
     19 C          -3.2777   -1.7726   -1.3099 C.ar    1  UNL11       0.0282
     20 C           2.6484   -2.8299   -3.3922 C.ar    1  UNL11       0.0369
     21 C           3.8184   -3.3348   -3.9762 C.ar    1  UNL11      -0.0469
     22 C           3.8788   -3.7131   -5.2990 C.ar    1  UNL11      -0.0257
     23 C           2.7816   -3.6090   -6.1066 C.ar    1  UNL11       0.1234
     24 F           2.8546   -3.9849   -7.4068 F       1  UNL11      -0.2055
     25 C           1.6231   -3.1160   -5.5540 C.ar    1  UNL11      -0.0257
     26 C           1.5595   -2.7319   -4.2136 C.ar    1  UNL11      -0.0469
     27 H           0.6523   -1.8408   -1.9277 H       1  UNL11       0.1491
     28 H           2.5313   -1.3306    0.3616 H       1  UNL11       0.0477
     29 H           1.2205   -2.4952    0.5958 H       1  UNL11       0.0477
     30 H           0.6464   -0.1608    1.4030 H       1  UNL11       0.0477
     31 H           0.8041    0.4079   -0.3416 H       1  UNL11       0.0477
     32 H          -1.5958   -0.2390    0.0987 H       1  UNL11       0.1491
     33 H          -4.1051   -5.3931   -0.9587 H       1  UNL11       0.4829
     34 H          -6.5551   -1.8108   -2.2883 H       1  UNL11       0.0627
     35 H          -6.0840    0.6472   -2.5541 H       1  UNL11       0.0618
     36 H          -3.8244    1.4616   -2.0100 H       1  UNL11       0.0618
     37 H          -2.0590   -0.0429   -1.2302 H       1  UNL11       0.0624
     38 H           4.7159   -3.4319   -3.3590 H       1  UNL11       0.0626
     39 H           4.8207   -4.1002   -5.6979 H       1  UNL11       0.0646
     40 H           0.7450   -3.0322   -6.1988 H       1  UNL11       0.0646
     41 H           0.6313   -2.3523   -3.8255 H       1  UNL11       0.0626
@<TRIPOS>BOND
     1     1     2    2
     2     2     3   am
     3     2    20    1
     4     3     4    1
     5     3    27    1
     6     4     5    1
     7     4    28    1
     8     4    29    1
     9     5     6    1
    10     5    30    1
    11     5    31    1
    12     6     7   am
    13     6    32    1
    14     7     8    2
    15     7     9    1
    16     9    10    2
    17    10    11    1
    18    11    12   am
    19    11    33    1
    20    12    13    2
    21    12    14    1
    22    14    15   ar
    23    15    16   ar
    24    15    34    1
    25    16    17   ar
    26    16    35    1
    27    17    18   ar
    28    17    36    1
    29    18    19   ar
    30    18    37    1
    31    19     9    1
    32    19    14   ar
    33    20    21   ar
    34    21    22   ar
    35    21    38    1
    36    22    23   ar
    37    22    39    1
    38    23    24    1
    39    23    25   ar
    40    25    26   ar
    41    25    40    1
    42    26    20   ar
    43    26    41    1
@<TRIPOS>MOLECULE
*****
 41 43 0 0 0
SMALL
GASTEIGER

@<TRIPOS>ATOM
      1 O           2.3094   -3.2550   -3.1022 O.2     1  UNL11      -0.2702
      2 C           2.3401   -2.9815   -1.8607 C.2     1  UNL11       0.2441
      3 N           1.5243   -1.9454   -1.3625 N.am    1  UNL11      -0.3099
      4 C           1.5112   -1.5560    0.0551 C.3     1  UNL11       0.0275
      5 C           0.5420   -0.4344    0.3316 C.3     1  UNL11       0.0275
      6 N          -0.7711   -0.8722   -0.0166 N.am    1  UNL11      -0.3084
      7 C          -0.9417   -2.2144   -0.5346 C.2     1  UNL11       0.2688
      8 O           0.1133   -2.8466   -0.6185 O.2     1  UNL11      -0.2683
      9 C          -2.2904   -2.6177   -0.8732 C.2     1  UNL11       0.1988
     10 N          -2.6548   -3.9374   -0.7640 N.2     1  UNL11       0.0021
     11 N          -3.8605   -4.3796   -1.0531 N.am    1  UNL11      -0.0351
     12 C          -4.8449   -3.5737   -1.4824 C.2     1  UNL11       0.4383
     13 O          -5.9977   -4.0090   -1.7567 O.2     1  UNL11      -0.2116
     14 C          -4.5695   -2.2277   -1.6226 C.ar    1  UNL11       0.1009
     15 C          -5.5681   -1.3770   -2.0636 C.ar    1  UNL11      -0.0441
     16 C          -5.3029   -0.0414   -2.2053 C.ar    1  UNL11      -0.0608
     17 C          -4.0410    0.4120   -1.9011 C.ar    1  UNL11      -0.0611
     18 C          -3.0294   -0.4282   -1.4579 C.ar    1  UNL11      -0.0513
     19 C          -3.2777   -1.7726   -1.3099 C.ar    1  UNL11       0.0282
     20 C           3.2058   -3.7342   -0.9907 C.ar    1  UNL11       0.0369
     21 C           3.7378   -3.1043    0.1430 C.ar    1  UNL11      -0.0469
     22 C           4.5726   -3.7543    1.0246 C.ar    1  UNL11      -0.0257
     23 C           4.9201   -5.0605    0.8245 C.ar    1  UNL11       0.1234
     24 F           5.7426   -5.6884    1.7000 F       1  UNL11      -0.2055
     25 C           4.4094   -5.6977   -0.2817 C.ar    1  UNL11      -0.0257
     26 C           3.5631   -5.0410   -1.1766 C.ar    1  UNL11      -0.0469
     27 H           0.9072   -1.4387   -2.0358 H       1  UNL11       0.1491
     28 H           2.5313   -1.3306    0.3616 H       1  UNL11       0.0477
     29 H           1.2205   -2.4952    0.5958 H       1  UNL11       0.0477
     30 H           0.6464   -0.1608    1.4030 H       1  UNL11       0.0477
     31 H           0.8041    0.4079   -0.3416 H       1  UNL11       0.0477
     32 H          -1.5958   -0.2390    0.0987 H       1  UNL11       0.1491
     33 H          -4.1051   -5.3931   -0.9587 H       1  UNL11       0.4829
     34 H          -6.5551   -1.8108   -2.2883 H       1  UNL11       0.0627
     35 H          -6.0840    0.6472   -2.5541 H       1  UNL11       0.0618
     36 H          -3.8244    1.4616   -2.0100 H       1  UNL11       0.0618
     37 H          -2.0590   -0.0429   -1.2302 H       1  UNL11       0.0624
     38 H           3.4807   -2.0588    0.3343 H       1  UNL11       0.0626
     39 H           4.9564   -3.2096    1.8919 H       1  UNL11       0.0646
     40 H           4.6865   -6.7422   -0.4428 H       1  UNL11       0.0646
     41 H           3.1878   -5.5804   -2.0277 H       1  UNL11       0.0626
@<TRIPOS>BOND
     1     1     2    2
     2     2     3   am
     3     2    20    1
     4     3     4    1
     5     3    27    1
     6     4     5    1
     7     4    28    1
     8     4    29    1
     9     5     6    1
    10     5    30    1
    11     5    31    1
    12     6     7   am
    13     6    32    1
    14     7     8    2
    15     7     9    1
    16     9    10    2
    17    10    11    1
    18    11    12   am
    19    11    33    1
    20    12    13    2
    21    12    14    1
    22    14    15   ar
    23    15    16   ar
    24    15    34    1
    25    16    17   ar
    26    16    35    1
    27    17    18   ar
    28    17    36    1
    29    18    19   ar
    30    18    37    1
    31    19     9    1
    32    19    14   ar
    33    20    21   ar
    34    21    22   ar
    35    21    38    1
    36    22    23   ar
    37    22    39    1
    38    23    24    1
    39    23    25   ar
    40    25    26   ar
    41    25    40    1
    42    26    20   ar
    43    26    41    1
@<TRIPOS>MOLECULE
*****
 41 43 0 0 0
SMALL
GASTEIGER

@<TRIPOS>ATOM
      1 O           2.9818   -3.9720   -0.0236 O.2     1  UNL11      -0.2702
      2 C           1.9636   -3.9474    0.7378 C.2     1  UNL11       0.2441
      3 N           1.1913   -2.7709    0.8187 N.am    1  UNL11      -0.3099
      4 C           1.5112   -1.5560    0.0551 C.3     1  UNL11       0.0275
      5 C           0.5420   -0.4344    0.3316 C.3     1  UNL11       0.0275
      6 N          -0.7711   -0.8722   -0.0166 N.am    1  UNL11      -0.3084
      7 C          -1.3281   -2.0172    0.6746 C.2     1  UNL11       0.2688
      8 O          -0.5687   -2.4997    1.5173 O.2     1  UNL11      -0.2683
      9 C          -2.6632   -2.4258    0.2914 C.2     1  UNL11       0.1988
     10 N          -3.5562   -1.4900   -0.1703 N.2     1  UNL11       0.0021
     11 N          -4.7856   -1.7848   -0.5371 N.am    1  UNL11      -0.0351
     12 C          -5.2764   -3.0338   -0.4913 C.2     1  UNL11       0.4383
     13 O          -6.4572   -3.3048   -0.8457 O.2     1  UNL11      -0.2116
     14 C          -4.4482   -4.0422   -0.0392 C.ar    1  UNL11       0.1009
     15 C          -4.9313   -5.3379    0.0171 C.ar    1  UNL11      -0.0441
     16 C          -4.1165   -6.3430    0.4641 C.ar    1  UNL11      -0.0608
     17 C          -2.8339   -6.0265    0.8452 C.ar    1  UNL11      -0.0611
     18 C          -2.3350   -4.7326    0.7945 C.ar    1  UNL11      -0.0513
     19 C          -3.1392   -3.7103    0.3482 C.ar    1  UNL11       0.0282
     20 C           1.6209   -5.1195    1.5004 C.ar    1  UNL11       0.0369
     21 C           1.9509   -6.3809    0.9857 C.ar    1  UNL11      -0.0469
     22 C           1.6586   -7.5496    1.6530 C.ar    1  UNL11      -0.0257
     23 C           1.0249   -7.5238    2.8633 C.ar    1  UNL11       0.1234
     24 F           0.7431   -8.6814    3.5095 F       1  UNL11      -0.2055
     25 C           0.6920   -6.2967    3.3867 C.ar    1  UNL11      -0.0257
     26 C           0.9872   -5.1109    2.7122 C.ar    1  UNL11      -0.0469
     27 H           0.3590   -2.7717    1.4496 H       1  UNL11       0.1491
     28 H           1.5791   -1.8179   -0.9995 H       1  UNL11       0.0477
     29 H           2.5517   -1.2919    0.3813 H       1  UNL11       0.0477
     30 H           0.6464   -0.1608    1.4030 H       1  UNL11       0.0477
     31 H           0.8041    0.4079   -0.3416 H       1  UNL11       0.0477
     32 H          -1.3227   -0.3784   -0.7557 H       1  UNL11       0.1491
     33 H          -5.4412   -1.0464   -0.8848 H       1  UNL11       0.4829
     34 H          -5.9693   -5.5171   -0.3045 H       1  UNL11       0.0627
     35 H          -4.4843   -7.3766    0.5149 H       1  UNL11       0.0618
     36 H          -2.1866   -6.8118    1.1980 H       1  UNL11       0.0618
     37 H          -1.3326   -4.5207    1.0984 H       1  UNL11       0.0624
     38 H           2.4589   -6.4391    0.0190 H       1  UNL11       0.0626
     39 H           1.9413   -8.5043    1.2004 H       1  UNL11       0.0646
     40 H           0.1852   -6.2747    4.3544 H       1  UNL11       0.0646
     41 H           0.7078   -4.1745    3.1611 H       1  UNL11       0.0626
@<TRIPOS>BOND
     1     1     2    2
     2     2     3   am
     3     2    20    1
     4     3     4    1
     5     3    27    1
     6     4     5    1
     7     4    28    1
     8     4    29    1
     9     5     6    1
    10     5    30    1
    11     5    31    1
    12     6     7   am
    13     6    32    1
    14     7     8    2
    15     7     9    1
    16     9    10    2
    17    10    11    1
    18    11    12   am
    19    11    33    1
    20    12    13    2
    21    12    14    1
    22    14    15   ar
    23    15    16   ar
    24    15    34    1
    25    16    17   ar
    26    16    35    1
    27    17    18   ar
    28    17    36    1
    29    18    19   ar
    30    18    37    1
    31    19     9    1
    32    19    14   ar
    33    20    21   ar
    34    21    22   ar
    35    21    38    1
    36    22    23   ar
    37    22    39    1
    38    23    24    1
    39    23    25   ar
    40    25    26   ar
    41    25    40    1
    42    26    20   ar
    43    26    41    1
@<TRIPOS>MOLECULE
*****
 41 43 0 0 0
SMALL
GASTEIGER

@<TRIPOS>ATOM
      1 O           4.7690    0.1379    0.1556 O.2     1  UNL11      -0.2702
      2 C           3.5678   -0.1059   -0.1833 C.2     1  UNL11       0.2441
      3 N           2.8939   -1.1969    0.4022 N.am    1  UNL11      -0.3099
      4 C           1.5112   -1.5560    0.0551 C.3     1  UNL11       0.0275
      5 C           0.5420   -0.4344    0.3316 C.3     1  UNL11       0.0275
      6 N          -0.7711   -0.8722   -0.0166 N.am    1  UNL11      -0.3084
      7 C          -0.9417   -2.2144   -0.5346 C.2     1  UNL11       0.2688
      8 O          -2.1105   -2.4880   -0.8152 O.2     1  UNL11      -0.2683
      9 C           0.2510   -3.0274   -0.6486 C.2     1  UNL11       0.1988
     10 N           0.3335   -3.9820   -1.6327 N.2     1  UNL11       0.0021
     11 N           1.3835   -4.7582   -1.7989 N.am    1  UNL11      -0.0351
     12 C           2.4718   -4.6837   -1.0160 C.2     1  UNL11       0.4383
     13 O           3.4732   -5.4335   -1.1848 O.2     1  UNL11      -0.2116
     14 C           2.4783   -3.7507    0.0021 C.ar    1  UNL11       0.1009
     15 C           3.5888   -3.6548    0.8225 C.ar    1  UNL11      -0.0441
     16 C           3.6030   -2.7324    1.8340 C.ar    1  UNL11      -0.0608
     17 C           2.5022   -1.9256    2.0006 C.ar    1  UNL11      -0.0611
     18 C           1.3815   -2.0095    1.1865 C.ar    1  UNL11      -0.0513
     19 C           1.3496   -2.9302    0.1656 C.ar    1  UNL11       0.0282
     20 C           2.9217    0.7358   -1.1564 C.ar    1  UNL11       0.0369
     21 C           3.6395    1.8070   -1.7063 C.ar    1  UNL11      -0.0469
     22 C           3.0943    2.6574   -2.6422 C.ar    1  UNL11      -0.0257
     23 C           1.8107    2.4866   -3.0782 C.ar    1  UNL11       0.1234
     24 F           1.2862    3.3309   -3.9998 F       1  UNL11      -0.2055
     25 C           1.0883    1.4418   -2.5518 C.ar    1  UNL11      -0.0257
     26 C           1.6388    0.5786   -1.6031 C.ar    1  UNL11      -0.0469
     27 H           3.4062   -1.7682    1.1106 H       1  UNL11       0.1491
     28 H           1.2558   -2.4831    0.5657 H       1  UNL11       0.0477
     29 H           1.5569   -1.8016   -1.0387 H       1  UNL11       0.0477
     30 H           0.6464   -0.1608    1.4030 H       1  UNL11       0.0477
     31 H           0.8041    0.4079   -0.3416 H       1  UNL11       0.0477
     32 H          -1.5958   -0.2390    0.0987 H       1  UNL11       0.1491
     33 H           1.4138   -5.4765   -2.5599 H       1  UNL11       0.4829
     34 H           4.4342   -4.3339    0.6298 H       1  UNL11       0.0627
     35 H           4.4763   -2.6434    2.4939 H       1  UNL11       0.0618
     36 H           2.5056   -1.1972    2.7942 H       1  UNL11       0.0618
     37 H           0.5422   -1.3669    1.3434 H       1  UNL11       0.0624
     38 H           4.6700    1.9735   -1.3802 H       1  UNL11       0.0626
     39 H           3.7043    3.4760   -3.0349 H       1  UNL11       0.0646
     40 H           0.0618    1.3041   -2.8996 H       1  UNL11       0.0646
     41 H           1.0357   -0.2251   -1.2201 H       1  UNL11       0.0626
@<TRIPOS>BOND
     1     1     2    2
     2     2     3   am
     3     2    20    1
     4     3     4    1
     5     3    27    1
     6     4     5    1
     7     4    28    1
     8     4    29    1
     9     5     6    1
    10     5    30    1
    11     5    31    1
    12     6     7   am
    13     6    32    1
    14     7     8    2
    15     7     9    1
    16     9    10    2
    17    10    11    1
    18    11    12   am
    19    11    33    1
    20    12    13    2
    21    12    14    1
    22    14    15   ar
    23    15    16   ar
    24    15    34    1
    25    16    17   ar
    26    16    35    1
    27    17    18   ar
    28    17    36    1
    29    18    19   ar
    30    18    37    1
    31    19     9    1
    32    19    14   ar
    33    20    21   ar
    34    21    22   ar
    35    21    38    1
    36    22    23   ar
    37    22    39    1
    38    23    24    1
    39    23    25   ar
    40    25    26   ar
    41    25    40    1
    42    26    20   ar
    43    26    41    1
@<TRIPOS>MOLECULE
*****
 41 43 0 0 0
SMALL
GASTEIGER

@<TRIPOS>ATOM
      1 O          -0.6549   -1.8341    1.8542 O.2     1  UNL11      -0.2702
      2 C           0.0957   -2.8493    1.7023 C.2     1  UNL11       0.2441
      3 N           1.1913   -2.7709    0.8187 N.am    1  UNL11      -0.3099
      4 C           1.5112   -1.5560    0.0551 C.3     1  UNL11       0.0275
      5 C           0.5420   -0.4344    0.3316 C.3     1  UNL11       0.0275
      6 N          -0.7711   -0.8722   -0.0166 N.am    1  UNL11      -0.3084
      7 C          -1.0262   -1.2879   -1.3808 C.2     1  UNL11       0.2688
      8 O          -2.1924   -1.6351   -1.5788 O.2     1  UNL11      -0.2683
      9 C           0.0925   -1.2396   -2.2987 C.2     1  UNL11       0.1988
     10 N           1.0867   -0.3104   -2.1131 N.2     1  UNL11       0.0021
     11 N           2.1334   -0.2055   -2.9043 N.am    1  UNL11      -0.0351
     12 C           2.3212   -1.0027   -3.9683 C.2     1  UNL11       0.4383
     13 O           3.3291   -0.8929   -4.7203 O.2     1  UNL11      -0.2116
     14 C           1.3705   -1.9687   -4.2334 C.ar    1  UNL11       0.1009
     15 C           1.5418   -2.8025   -5.3246 C.ar    1  UNL11      -0.0441
     16 C           0.6038   -3.7626   -5.5941 C.ar    1  UNL11      -0.0608
     17 C          -0.4864   -3.8654   -4.7626 C.ar    1  UNL11      -0.0611
     18 C          -0.6723   -3.0370   -3.6649 C.ar    1  UNL11      -0.0513
     19 C           0.2596   -2.0670   -3.3790 C.ar    1  UNL11       0.0282
     20 C          -0.1883   -4.0560    2.4344 C.ar    1  UNL11       0.0369
     21 C           0.1543   -5.2894    1.8631 C.ar    1  UNL11      -0.0469
     22 C          -0.0830   -6.4880    2.4983 C.ar    1  UNL11      -0.0257
     23 C          -0.6715   -6.5215    3.7310 C.ar    1  UNL11       0.1234
     24 F          -0.8994   -7.7081    4.3451 F       1  UNL11      -0.2055
     25 C          -1.0158   -5.3228    4.3099 C.ar    1  UNL11      -0.0257
     26 C          -0.7763   -4.1067    3.6680 C.ar    1  UNL11      -0.0469
     27 H           1.7953   -3.6158    0.7086 H       1  UNL11       0.1491
     28 H           1.5791   -1.8179   -0.9995 H       1  UNL11       0.0477
     29 H           2.5517   -1.2919    0.3813 H       1  UNL11       0.0477
     30 H           0.6464   -0.1608    1.4030 H       1  UNL11       0.0477
     31 H           0.8041    0.4079   -0.3416 H       1  UNL11       0.0477
     32 H          -1.5361   -0.8936    0.6966 H       1  UNL11       0.1491
     33 H           2.8738    0.5148   -2.7340 H       1  UNL11       0.4829
     34 H           2.4398   -2.6623   -5.9466 H       1  UNL11       0.0627
     35 H           0.7247   -4.4324   -6.4560 H       1  UNL11       0.0618
     36 H          -1.2288   -4.6183   -4.9679 H       1  UNL11       0.0618
     37 H          -1.5315   -3.1437   -3.0386 H       1  UNL11       0.0624
     38 H           0.6271   -5.3003    0.8771 H       1  UNL11       0.0626
     39 H           0.2068   -7.4185    2.0017 H       1  UNL11       0.0646
     40 H          -1.4865   -5.3481    5.2955 H       1  UNL11       0.0646
     41 H          -1.0625   -3.1944    4.1600 H       1  UNL11       0.0626
@<TRIPOS>BOND
     1     1     2    2
     2     2     3   am
     3     2    20    1
     4     3     4    1
     5     3    27    1
     6     4     5    1
     7     4    28    1
     8     4    29    1
     9     5     6    1
    10     5    30    1
    11     5    31    1
    12     6     7   am
    13     6    32    1
    14     7     8    2
    15     7     9    1
    16     9    10    2
    17    10    11    1
    18    11    12   am
    19    11    33    1
    20    12    13    2
    21    12    14    1
    22    14    15   ar
    23    15    16   ar
    24    15    34    1
    25    16    17   ar
    26    16    35    1
    27    17    18   ar
    28    17    36    1
    29    18    19   ar
    30    18    37    1
    31    19     9    1
    32    19    14   ar
    33    20    21   ar
    34    21    22   ar
    35    21    38    1
    36    22    23   ar
    37    22    39    1
    38    23    24    1
    39    23    25   ar
    40    25    26   ar
    41    25    40    1
    42    26    20   ar
    43    26    41    1
@<TRIPOS>MOLECULE
*****
 41 43 0 0 0
SMALL
GASTEIGER

@<TRIPOS>ATOM
      1 O           4.9677   -0.3304   -0.1517 O.2     1  UNL11      -0.2702
      2 C           3.7807   -0.6018   -0.5181 C.2     1  UNL11       0.2441
      3 N           2.8939   -1.1969    0.4022 N.am    1  UNL11      -0.3099
      4 C           1.5112   -1.5560    0.0551 C.3     1  UNL11       0.0275
      5 C           0.5420   -0.4344    0.3316 C.3     1  UNL11       0.0275
      6 N          -0.7711   -0.8722   -0.0166 N.am    1  UNL11      -0.3084
      7 C          -1.9003   -0.3309    0.7121 C.2     1  UNL11       0.2688
      8 O          -2.9860   -0.7827    0.3423 O.2     1  UNL11      -0.2683
      9 C          -1.6065    0.6392    1.7460 C.2     1  UNL11       0.1988
     10 N          -2.5193    1.6235    2.0361 N.2     1  UNL11       0.0021
     11 N          -2.3237    2.5394    2.9610 N.am    1  UNL11      -0.0351
     12 C          -1.2077    2.5912    3.7059 C.2     1  UNL11       0.4383
     13 O          -1.0309    3.4743    4.5904 O.2     1  UNL11      -0.2116
     14 C          -0.2322    1.6393    3.4835 C.ar    1  UNL11       0.1009
     15 C           0.9271    1.6719    4.2387 C.ar    1  UNL11      -0.0441
     16 C           1.8988    0.7317    4.0242 C.ar    1  UNL11      -0.0608
     17 C           1.6864   -0.2213    3.0562 C.ar    1  UNL11      -0.0611
     18 C           0.5297   -0.2673    2.2910 C.ar    1  UNL11      -0.0513
     19 C          -0.4571    0.6691    2.4926 C.ar    1  UNL11       0.0282
     20 C           3.3671   -0.2964   -1.8629 C.ar    1  UNL11       0.0369
     21 C           2.0510   -0.5876   -2.2477 C.ar    1  UNL11      -0.0469
     22 C           1.5776   -0.3258   -3.5142 C.ar    1  UNL11      -0.0257
     23 C           2.3865    0.2375   -4.4603 C.ar    1  UNL11       0.1234
     24 F           1.9079    0.4898   -5.7031 F       1  UNL11      -0.2055
     25 C           3.6816    0.5313   -4.1041 C.ar    1  UNL11      -0.0257
     26 C           4.1637    0.2669   -2.8211 C.ar    1  UNL11      -0.0469
     27 H           3.2426   -1.3871    1.3681 H       1  UNL11       0.1491
     28 H           1.2558   -2.4831    0.5657 H       1  UNL11       0.0477
     29 H           1.5569   -1.8016   -1.0387 H       1  UNL11       0.0477
     30 H           0.6464   -0.1608    1.4030 H       1  UNL11       0.0477
     31 H           0.8041    0.4079   -0.3416 H       1  UNL11       0.0477
     32 H          -0.9185   -1.5698   -0.7821 H       1  UNL11       0.1491
     33 H          -3.0410    3.2763    3.1570 H       1  UNL11       0.4829
     34 H           1.0284    2.4644    4.9966 H       1  UNL11       0.0627
     35 H           2.8247    0.7434    4.6148 H       1  UNL11       0.0618
     36 H           2.4462   -0.9646    2.8815 H       1  UNL11       0.0618
     37 H           0.3963   -1.0219    1.5463 H       1  UNL11       0.0624
     38 H           1.3756   -1.0391   -1.5157 H       1  UNL11       0.0626
     39 H           0.5404   -0.5756   -3.7553 H       1  UNL11       0.0646
     40 H           4.3295    0.9818   -4.8597 H       1  UNL11       0.0646
     41 H           5.1839    0.5145   -2.5883 H       1  UNL11       0.0626
@<TRIPOS>BOND
     1     1     2    2
     2     2     3   am
     3     2    20    1
     4     3     4    1
     5     3    27    1
     6     4     5    1
     7     4    28    1
     8     4    29    1
     9     5     6    1
    10     5    30    1
    11     5    31    1
    12     6     7   am
    13     6    32    1
    14     7     8    2
    15     7     9    1
    16     9    10    2
    17    10    11    1
    18    11    12   am
    19    11    33    1
    20    12    13    2
    21    12    14    1
    22    14    15   ar
    23    15    16   ar
    24    15    34    1
    25    16    17   ar
    26    16    35    1
    27    17    18   ar
    28    17    36    1
    29    18    19   ar
    30    18    37    1
    31    19     9    1
    32    19    14   ar
    33    20    21   ar
    34    21    22   ar
    35    21    38    1
    36    22    23   ar
    37    22    39    1
    38    23    24    1
    39    23    25   ar
    40    25    26   ar
    41    25    40    1
    42    26    20   ar
    43    26    41    1
@<TRIPOS>MOLECULE
*****
 41 43 0 0 0
SMALL
GASTEIGER

@<TRIPOS>ATOM
      1 O           0.6123   -5.0095    0.9255 O.2     1  UNL11      -0.2702
      2 C           0.8932   -4.0027    0.2014 C.2     1  UNL11       0.2441
      3 N           1.1913   -2.7709    0.8187 N.am    1  UNL11      -0.3099
      4 C           1.5112   -1.5560    0.0551 C.3     1  UNL11       0.0275
      5 C           0.5420   -0.4344    0.3316 C.3     1  UNL11       0.0275
      6 N          -0.7711   -0.8722   -0.0166 N.am    1  UNL11      -0.3084
      7 C          -1.8773    0.0489    0.1477 C.2     1  UNL11       0.2688
      8 O          -2.9676   -0.4310   -0.1694 O.2     1  UNL11      -0.2683
      9 C          -1.5589    1.3697    0.6481 C.2     1  UNL11       0.1988
     10 N          -2.3245    2.4450    0.2686 N.2     1  UNL11       0.0021
     11 N          -2.0975    3.6742    0.6812 N.am    1  UNL11      -0.0351
     12 C          -1.0914    3.9855    1.5141 C.2     1  UNL11       0.4383
     13 O          -0.8831    5.1681    1.9034 O.2     1  UNL11      -0.2116
     14 C          -0.2676    2.9659    1.9491 C.ar    1  UNL11       0.1009
     15 C           0.7763    3.2618    2.8081 C.ar    1  UNL11      -0.0441
     16 C           1.5974    2.2567    3.2438 C.ar    1  UNL11      -0.0608
     17 C           1.3531    0.9757    2.8079 C.ar    1  UNL11      -0.0611
     18 C           0.3107    0.6631    1.9469 C.ar    1  UNL11      -0.0513
     19 C          -0.5240    1.6600    1.4991 C.ar    1  UNL11       0.0282
     20 C           0.9011   -4.1409   -1.2317 C.ar    1  UNL11       0.0369
     21 C           0.5697   -3.0298   -2.0196 C.ar    1  UNL11      -0.0469
     22 C           0.5544   -3.0794   -3.3957 C.ar    1  UNL11      -0.0257
     23 C           0.8672   -4.2334   -4.0572 C.ar    1  UNL11       0.1234
     24 F           0.8482   -4.2685   -5.4120 F       1  UNL11      -0.2055
     25 C           1.1953   -5.3356   -3.3036 C.ar    1  UNL11      -0.0257
     26 C           1.2115   -5.2878   -1.9087 C.ar    1  UNL11      -0.0469
     27 H           1.1817   -2.7291    1.8622 H       1  UNL11       0.1491
     28 H           1.5791   -1.8179   -0.9995 H       1  UNL11       0.0477
     29 H           2.5517   -1.2919    0.3813 H       1  UNL11       0.0477
     30 H           0.6464   -0.1608    1.4030 H       1  UNL11       0.0477
     31 H           0.8041    0.4079   -0.3416 H       1  UNL11       0.0477
     32 H          -0.9348   -1.8382   -0.3833 H       1  UNL11       0.1491
     33 H          -2.7011    4.4718    0.3723 H       1  UNL11       0.4829
     34 H           0.9117    4.3107    3.1154 H       1  UNL11       0.0627
     35 H           2.4303    2.4745    3.9256 H       1  UNL11       0.0618
     36 H           1.9947    0.1793    3.1462 H       1  UNL11       0.0618
     37 H           0.1487   -0.3436    1.6273 H       1  UNL11       0.0624
     38 H           0.3140   -2.0895   -1.5234 H       1  UNL11       0.0626
     39 H           0.2875   -2.1790   -3.9564 H       1  UNL11       0.0646
     40 H           1.4456   -6.2590   -3.8314 H       1  UNL11       0.0646
     41 H           1.4749   -6.1752   -1.3616 H       1  UNL11       0.0626
@<TRIPOS>BOND
     1     1     2    2
     2     2     3   am
     3     2    20    1
     4     3     4    1
     5     3    27    1
     6     4     5    1
     7     4    28    1
     8     4    29    1
     9     5     6    1
    10     5    30    1
    11     5    31    1
    12     6     7   am
    13     6    32    1
    14     7     8    2
    15     7     9    1
    16     9    10    2
    17    10    11    1
    18    11    12   am
    19    11    33    1
    20    12    13    2
    21    12    14    1
    22    14    15   ar
    23    15    16   ar
    24    15    34    1
    25    16    17   ar
    26    16    35    1
    27    17    18   ar
    28    17    36    1
    29    18    19   ar
    30    18    37    1
    31    19     9    1
    32    19    14   ar
    33    20    21   ar
    34    21    22   ar
    35    21    38    1
    36    22    23   ar
    37    22    39    1
    38    23    24    1
    39    23    25   ar
    40    25    26   ar
    41    25    40    1
    42    26    20   ar
    43    26    41    1
@<TRIPOS>MOLECULE
*****
 41 43 0 0 0
SMALL
GASTEIGER

@<TRIPOS>ATOM
      1 O          -0.1129   -3.9292    2.3404 O.2     1  UNL11      -0.2702
      2 C           0.0957   -2.8493    1.7023 C.2     1  UNL11       0.2441
      3 N           1.1913   -2.7709    0.8187 N.am    1  UNL11      -0.3099
      4 C           1.5112   -1.5560    0.0551 C.3     1  UNL11       0.0275
      5 C           0.5420   -0.4344    0.3316 C.3     1  UNL11       0.0275
      6 N          -0.7711   -0.8722   -0.0166 N.am    1  UNL11      -0.3084
      7 C          -0.9417   -2.2144   -0.5346 C.2     1  UNL11       0.2688
      8 O           0.1133   -2.8466   -0.6185 O.2     1  UNL11      -0.2683
      9 C          -2.2904   -2.6177   -0.8732 C.2     1  UNL11       0.1988
     10 N          -3.3299   -1.7380   -0.6943 N.2     1  UNL11       0.0021
     11 N          -4.5811   -2.0318   -0.9787 N.am    1  UNL11      -0.0351
     12 C          -4.9521   -3.2244   -1.4715 C.2     1  UNL11       0.4383
     13 O          -6.1553   -3.4951   -1.7407 O.2     1  UNL11      -0.2116
     14 C          -3.9721   -4.1738   -1.6846 C.ar    1  UNL11       0.1009
     15 C          -4.3298   -5.4108   -2.1919 C.ar    1  UNL11      -0.0441
     16 C          -3.3641   -6.3573   -2.4059 C.ar    1  UNL11      -0.0608
     17 C          -2.0597   -6.0421   -2.1061 C.ar    1  UNL11      -0.0611
     18 C          -1.6853   -4.8067   -1.5970 C.ar    1  UNL11      -0.0513
     19 C          -2.6419   -3.8438   -1.3756 C.ar    1  UNL11       0.0282
     20 C          -0.7898   -1.7304    1.8949 C.ar    1  UNL11       0.0369
     21 C          -1.8636   -1.8641    2.7860 C.ar    1  UNL11      -0.0469
     22 C          -2.7545   -0.8419    3.0263 C.ar    1  UNL11      -0.0257
     23 C          -2.6237    0.3625    2.3944 C.ar    1  UNL11       0.1234
     24 F          -3.5076    1.3602    2.6400 F       1  UNL11      -0.2055
     25 C          -1.5771    0.5153    1.5159 C.ar    1  UNL11      -0.0257
     26 C          -0.6728   -0.5193    1.2707 C.ar    1  UNL11      -0.0469
     27 H           1.7953   -3.6158    0.7086 H       1  UNL11       0.1491
     28 H           1.5791   -1.8179   -0.9995 H       1  UNL11       0.0477
     29 H           2.5517   -1.2919    0.3813 H       1  UNL11       0.0477
     30 H           0.6464   -0.1608    1.4030 H       1  UNL11       0.0477
     31 H           0.8041    0.4079   -0.3416 H       1  UNL11       0.0477
     32 H          -1.5958   -0.2390    0.0987 H       1  UNL11       0.1491
     33 H          -5.3501   -1.3372   -0.8302 H       1  UNL11       0.4829
     34 H          -5.3941   -5.5926   -2.4088 H       1  UNL11       0.0627
     35 H          -3.6310   -7.3438   -2.8079 H       1  UNL11       0.0618
     36 H          -1.2940   -6.7815   -2.2717 H       1  UNL11       0.0618
     37 H          -0.6619   -4.5943   -1.3746 H       1  UNL11       0.0624
     38 H          -1.9987   -2.8147    3.3095 H       1  UNL11       0.0626
     39 H          -3.5730   -1.0062    3.7330 H       1  UNL11       0.0646
     40 H          -1.4714    1.4779    1.0099 H       1  UNL11       0.0646
     41 H           0.1305   -0.3532    0.5755 H       1  UNL11       0.0626
@<TRIPOS>BOND
     1     1     2    2
     2     2     3   am
     3     2    20    1
     4     3     4    1
     5     3    27    1
     6     4     5    1
     7     4    28    1
     8     4    29    1
     9     5     6    1
    10     5    30    1
    11     5    31    1
    12     6     7   am
    13     6    32    1
    14     7     8    2
    15     7     9    1
    16     9    10    2
    17    10    11    1
    18    11    12   am
    19    11    33    1
    20    12    13    2
    21    12    14    1
    22    14    15   ar
    23    15    16   ar
    24    15    34    1
    25    16    17   ar
    26    16    35    1
    27    17    18   ar
    28    17    36    1
    29    18    19   ar
    30    18    37    1
    31    19     9    1
    32    19    14   ar
    33    20    21   ar
    34    21    22   ar
    35    21    38    1
    36    22    23   ar
    37    22    39    1
    38    23    24    1
    39    23    25   ar
    40    25    26   ar
    41    25    40    1
    42    26    20   ar
    43    26    41    1
@<TRIPOS>MOLECULE
*****
 41 43 0 0 0
SMALL
GASTEIGER

@<TRIPOS>ATOM
      1 O           2.6173   -2.2143   -3.3852 O.2     1  UNL11      -0.2702
      2 C           2.6832   -1.8733   -2.1619 C.2     1  UNL11       0.2441
      3 N           1.5243   -1.9454   -1.3625 N.am    1  UNL11      -0.3099
      4 C           1.5112   -1.5560    0.0551 C.3     1  UNL11       0.0275
      5 C           0.5420   -0.4344    0.3316 C.3     1  UNL11       0.0275
      6 N          -0.7711   -0.8722   -0.0166 N.am    1  UNL11      -0.3084
      7 C          -0.9417   -2.2144   -0.5346 C.2     1  UNL11       0.2688
      8 O          -2.1105   -2.4880   -0.8152 O.2     1  UNL11      -0.2683
      9 C           0.2510   -3.0274   -0.6486 C.2     1  UNL11       0.1988
     10 N           1.4667   -2.5101   -0.2734 N.2     1  UNL11       0.0021
     11 N           2.5931   -3.1871   -0.3478 N.am    1  UNL11      -0.0351
     12 C           2.6517   -4.4501   -0.8000 C.2     1  UNL11       0.4383
     13 O           3.7379   -5.0898   -0.8669 O.2     1  UNL11      -0.2116
     14 C           1.4756   -5.0531   -1.2004 C.ar    1  UNL11       0.1009
     15 C           1.5104   -6.3545   -1.6702 C.ar    1  UNL11      -0.0441
     16 C           0.3488   -6.9592   -2.0691 C.ar    1  UNL11      -0.0608
     17 C          -0.8233   -6.2449   -1.9880 C.ar    1  UNL11      -0.0611
     18 C          -0.8744   -4.9397   -1.5193 C.ar    1  UNL11      -0.0513
     19 C           0.2825   -4.3164   -1.1144 C.ar    1  UNL11       0.0282
     20 C           3.9378   -1.4213   -1.6192 C.ar    1  UNL11       0.0369
     21 C           5.0583   -1.3696   -2.4599 C.ar    1  UNL11      -0.0469
     22 C           6.2930   -0.9487   -2.0185 C.ar    1  UNL11      -0.0257
     23 C           6.4763   -0.5587   -0.7219 C.ar    1  UNL11       0.1234
     24 F           7.6968   -0.1467   -0.3005 F       1  UNL11      -0.2055
     25 C           5.3902   -0.6017    0.1202 C.ar    1  UNL11      -0.0257
     26 C           4.1378   -1.0279   -0.3249 C.ar    1  UNL11      -0.0469
     27 H           0.6432   -2.2906   -1.8043 H       1  UNL11       0.1491
     28 H           2.5313   -1.3306    0.3616 H       1  UNL11       0.0477
     29 H           1.2205   -2.4952    0.5958 H       1  UNL11       0.0477
     30 H           0.6464   -0.1608    1.4030 H       1  UNL11       0.0477
     31 H           0.8041    0.4079   -0.3416 H       1  UNL11       0.0477
     32 H          -1.5958   -0.2390    0.0987 H       1  UNL11       0.1491
     33 H           3.5034   -2.7624   -0.0532 H       1  UNL11       0.4829
     34 H           2.4855   -6.8650   -1.7070 H       1  UNL11       0.0627
     35 H           0.3590   -7.9912   -2.4443 H       1  UNL11       0.0618
     36 H          -1.7415   -6.7137   -2.2999 H       1  UNL11       0.0618
     37 H          -1.8027   -4.4127   -1.4693 H       1  UNL11       0.0624
     38 H           4.9480   -1.6745   -3.5043 H       1  UNL11       0.0626
     39 H           7.1302   -0.9301   -2.7221 H       1  UNL11       0.0646
     40 H           5.5354   -0.2901    1.1573 H       1  UNL11       0.0646
     41 H           3.3174   -1.0441    0.3701 H       1  UNL11       0.0626
@<TRIPOS>BOND
     1     1     2    2
     2     2     3   am
     3     2    20    1
     4     3     4    1
     5     3    27    1
     6     4     5    1
     7     4    28    1
     8     4    29    1
     9     5     6    1
    10     5    30    1
    11     5    31    1
    12     6     7   am
    13     6    32    1
    14     7     8    2
    15     7     9    1
    16     9    10    2
    17    10    11    1
    18    11    12   am
    19    11    33    1
    20    12    13    2
    21    12    14    1
    22    14    15   ar
    23    15    16   ar
    24    15    34    1
    25    16    17   ar
    26    16    35    1
    27    17    18   ar
    28    17    36    1
    29    18    19   ar
    30    18    37    1
    31    19     9    1
    32    19    14   ar
    33    20    21   ar
    34    21    22   ar
    35    21    38    1
    36    22    23   ar
    37    22    39    1
    38    23    24    1
    39    23    25   ar
    40    25    26   ar
    41    25    40    1
    42    26    20   ar
    43    26    41    1
@<TRIPOS>MOLECULE
*****
 41 43 0 0 0
SMALL
GASTEIGER

@<TRIPOS>ATOM
      1 O           4.4973   -0.5357    1.9353 O.2     1  UNL11      -0.2702
      2 C           3.2853   -0.8485    1.7109 C.2     1  UNL11       0.2441
      3 N           2.8939   -1.1969    0.4022 N.am    1  UNL11      -0.3099
      4 C           1.5112   -1.5560    0.0551 C.3     1  UNL11       0.0275
      5 C           0.5420   -0.4344    0.3316 C.3     1  UNL11       0.0275
      6 N          -0.7711   -0.8722   -0.0166 N.am    1  UNL11      -0.3084
      7 C          -1.7909   -0.8976    1.0122 C.2     1  UNL11       0.2688
      8 O          -2.8840   -1.3023    0.6107 O.2     1  UNL11      -0.2683
      9 C          -1.3970   -0.4566    2.3338 C.2     1  UNL11       0.1988
     10 N          -0.1065   -0.0434    2.5579 N.2     1  UNL11       0.0021
     11 N           0.3255    0.3707    3.7303 N.am    1  UNL11      -0.0351
     12 C          -0.4630    0.4254    4.8158 C.2     1  UNL11       0.4383
     13 O          -0.0378    0.8244    5.9354 O.2     1  UNL11      -0.2116
     14 C          -1.7792    0.0285    4.6846 C.ar    1  UNL11       0.1009
     15 C          -2.6116    0.0759    5.7893 C.ar    1  UNL11      -0.0441
     16 C          -3.9176   -0.3160    5.6674 C.ar    1  UNL11      -0.0608
     17 C          -4.3606   -0.7471    4.4392 C.ar    1  UNL11      -0.0611
     18 C          -3.5385   -0.8004    3.3226 C.ar    1  UNL11      -0.0513
     19 C          -2.2238   -0.4107    3.4264 C.ar    1  UNL11       0.0282
     20 C           2.3390   -0.8403    2.7960 C.ar    1  UNL11       0.0369
     21 C           1.2597   -1.7340    2.7581 C.ar    1  UNL11      -0.0469
     22 C           0.3123   -1.7894    3.7560 C.ar    1  UNL11      -0.0257
     23 C           0.3895   -0.9611    4.8399 C.ar    1  UNL11       0.1234
     24 F          -0.5497   -1.0259    5.8151 F       1  UNL11      -0.2055
     25 C           1.4404   -0.0763    4.8973 C.ar    1  UNL11      -0.0257
     26 C           2.4019   -0.0184    3.8871 C.ar    1  UNL11      -0.0469
     27 H           3.6233   -1.1969   -0.3454 H       1  UNL11       0.1491
     28 H           1.2558   -2.4831    0.5657 H       1  UNL11       0.0477
     29 H           1.5569   -1.8016   -1.0387 H       1  UNL11       0.0477
     30 H           0.6464   -0.1608    1.4030 H       1  UNL11       0.0477
     31 H           0.8041    0.4079   -0.3416 H       1  UNL11       0.0477
     32 H          -0.9957   -1.1694   -0.9941 H       1  UNL11       0.1491
     33 H           1.3165    0.6792    3.8668 H       1  UNL11       0.4829
     34 H          -2.1877    0.4323    6.7412 H       1  UNL11       0.0627
     35 H          -4.5914   -0.2846    6.5341 H       1  UNL11       0.0618
     36 H          -5.3870   -1.0571    4.3352 H       1  UNL11       0.0618
     37 H          -3.9149   -1.1408    2.3822 H       1  UNL11       0.0624
     38 H           1.1666   -2.4119    1.9050 H       1  UNL11       0.0626
     39 H          -0.5074   -2.5084    3.6703 H       1  UNL11       0.0646
     40 H           1.5033    0.5865    5.7635 H       1  UNL11       0.0646
     41 H           3.2063    0.6897    3.9756 H       1  UNL11       0.0626
@<TRIPOS>BOND
     1     1     2    2
     2     2     3   am
     3     2    20    1
     4     3     4    1
     5     3    27    1
     6     4     5    1
     7     4    28    1
     8     4    29    1
     9     5     6    1
    10     5    30    1
    11     5    31    1
    12     6     7   am
    13     6    32    1
    14     7     8    2
    15     7     9    1
    16     9    10    2
    17    10    11    1
    18    11    12   am
    19    11    33    1
    20    12    13    2
    21    12    14    1
    22    14    15   ar
    23    15    16   ar
    24    15    34    1
    25    16    17   ar
    26    16    35    1
    27    17    18   ar
    28    17    36    1
    29    18    19   ar
    30    18    37    1
    31    19     9    1
    32    19    14   ar
    33    20    21   ar
    34    21    22   ar
    35    21    38    1
    36    22    23   ar
    37    22    39    1
    38    23    24    1
    39    23    25   ar
    40    25    26   ar
    41    25    40    1
    42    26    20   ar
    43    26    41    1
