@<TRIPOS>MOLECULE
*****
 34 36 0 0 0
SMALL
GASTEIGER

@<TRIPOS>ATOM
      1 O           2.9746    3.1158   -2.4683 O.2     1  UNL11      -0.1300
      2 N           2.4032    2.1392   -1.9647 N.4     1  UNL11       0.0062
      3 O           1.5454    1.3879   -2.7183 O.2     1  UNL11      -0.3961
      4 C           2.6580    1.8257   -0.6072 C.ar    1  UNL11       0.1278
      5 C           3.5302    2.5943    0.1540 C.ar    1  UNL11       0.0039
      6 C           3.7470    2.2464    1.4799 C.ar    1  UNL11       0.1290
      7 F           4.6021    2.9844    2.2585 F       1  UNL11      -0.2053
      8 C           3.1243    1.1644    2.0606 C.ar    1  UNL11       0.0161
      9 C           2.2593    0.3927    1.3256 C.ar    1  UNL11       0.1368
     10 O           1.5956   -0.7027    1.8224 O.3     1  UNL11      -0.4235
     11 C           0.3722   -1.1602    1.4311 C.ar    1  UNL11       0.3239
     12 N           0.1357   -2.4887    1.5182 N.ar    1  UNL11      -0.2030
     13 C          -1.0275   -3.0246    1.1594 C.ar    1  UNL11       0.0350
     14 C          -2.0390   -2.1994    0.6781 C.ar    1  UNL11      -0.0173
     15 C          -1.8199   -0.8540    0.5823 C.ar    1  UNL11       0.0778
     16 C          -2.8545    0.0552    0.0812 C.ar    1  UNL11       0.0006
     17 C          -3.8014   -0.3301   -0.8308 C.ar    1  UNL11      -0.0526
     18 C          -4.7815    0.5481   -1.2992 C.ar    1  UNL11      -0.0611
     19 C          -4.8069    1.8326   -0.8415 C.ar    1  UNL11      -0.0617
     20 C          -3.8717    2.2620    0.0773 C.ar    1  UNL11      -0.0611
     21 C          -2.9190    1.3684    0.5179 C.ar    1  UNL11      -0.0526
     22 N          -0.6160   -0.3771    0.9638 N.ar    1  UNL11      -0.1946
     23 C           2.0517    0.7520    0.0010 C.ar    1  UNL11       0.0110
     24 H           4.0165    3.4413   -0.3039 H       1  UNL11       0.0669
     25 H           3.2968    0.8988    3.0913 H       1  UNL11       0.0683
     26 H          -1.1912   -4.0845    1.2381 H       1  UNL11       0.0832
     27 H          -2.9479   -2.6709    0.4047 H       1  UNL11       0.0654
     28 H          -3.8341   -1.3187   -1.2254 H       1  UNL11       0.0624
     29 H          -5.5139    0.2020   -2.0226 H       1  UNL11       0.0618
     30 H          -5.5743    2.5196   -1.2088 H       1  UNL11       0.0618
     31 H          -3.8921    3.2986    0.4468 H       1  UNL11       0.0618
     32 H          -2.1937    1.7308    1.2414 H       1  UNL11       0.0624
     33 H           1.3689    0.1613   -0.6185 H       1  UNL11       0.0677
     34 H           1.3903    1.6119   -3.6148 H       1  UNL11       0.3292
@<TRIPOS>BOND
     1     1     2    2
     2     2     3    1
     3     2     4    1
     4     4     5   ar
     5     5     6   ar
     6     5    24    1
     7     6     7    1
     8     6     8   ar
     9     8     9   ar
    10     8    25    1
    11     9    10    1
    12     9    23   ar
    13    10    11    1
    14    11    12   ar
    15    12    13   ar
    16    13    14   ar
    17    13    26    1
    18    14    15   ar
    19    14    27    1
    20    15    16    1
    21    15    22   ar
    22    16    17   ar
    23    17    18   ar
    24    17    28    1
    25    18    19   ar
    26    18    29    1
    27    19    20   ar
    28    19    30    1
    29    20    21   ar
    30    20    31    1
    31    21    16   ar
    32    21    32    1
    33    22    11   ar
    34    23     4   ar
    35    23    33    1
    36     3    34    1
@<TRIPOS>MOLECULE
*****
 34 36 0 0 0
SMALL
GASTEIGER

@<TRIPOS>ATOM
      1 O           2.1271    1.2198   -2.7471 O.2     1  UNL11      -0.1300
      2 N           2.4032    2.1392   -1.9647 N.4     1  UNL11       0.0062
      3 O           2.4573    3.4275   -2.4184 O.2     1  UNL11      -0.3961
      4 C           2.6580    1.8257   -0.6072 C.ar    1  UNL11       0.1278
      5 C           3.5302    2.5943    0.1540 C.ar    1  UNL11       0.0039
      6 C           3.7470    2.2464    1.4799 C.ar    1  UNL11       0.1290
      7 F           4.6021    2.9844    2.2585 F       1  UNL11      -0.2053
      8 C           3.1243    1.1644    2.0606 C.ar    1  UNL11       0.0161
      9 C           2.2593    0.3927    1.3256 C.ar    1  UNL11       0.1368
     10 O           1.5956   -0.7027    1.8224 O.3     1  UNL11      -0.4235
     11 C           0.3722   -1.1602    1.4311 C.ar    1  UNL11       0.3239
     12 N           0.1357   -2.4887    1.5182 N.ar    1  UNL11      -0.2030
     13 C          -1.0275   -3.0246    1.1594 C.ar    1  UNL11       0.0350
     14 C          -2.0390   -2.1994    0.6781 C.ar    1  UNL11      -0.0173
     15 C          -1.8199   -0.8540    0.5823 C.ar    1  UNL11       0.0778
     16 C          -2.8545    0.0552    0.0812 C.ar    1  UNL11       0.0006
     17 C          -4.1938   -0.1917    0.2304 C.ar    1  UNL11      -0.0526
     18 C          -5.1684    0.6846   -0.2528 C.ar    1  UNL11      -0.0611
     19 C          -4.7870    1.8256   -0.8953 C.ar    1  UNL11      -0.0617
     20 C          -3.4487    2.1127   -1.0670 C.ar    1  UNL11      -0.0611
     21 C          -2.5141    1.2256   -0.5774 C.ar    1  UNL11      -0.0526
     22 N          -0.6160   -0.3771    0.9638 N.ar    1  UNL11      -0.1946
     23 C           2.0517    0.7520    0.0010 C.ar    1  UNL11       0.0110
     24 H           4.0165    3.4413   -0.3039 H       1  UNL11       0.0669
     25 H           3.2968    0.8988    3.0913 H       1  UNL11       0.0683
     26 H          -1.1912   -4.0845    1.2381 H       1  UNL11       0.0832
     27 H          -2.9479   -2.6709    0.4047 H       1  UNL11       0.0654
     28 H          -4.5542   -1.0646    0.7225 H       1  UNL11       0.0624
     29 H          -6.2199    0.4510   -0.1134 H       1  UNL11       0.0618
     30 H          -5.5506    2.5110   -1.2734 H       1  UNL11       0.0618
     31 H          -3.1407    3.0335   -1.5855 H       1  UNL11       0.0618
     32 H          -1.4666    1.4743   -0.7253 H       1  UNL11       0.0624
     33 H           1.3689    0.1613   -0.6185 H       1  UNL11       0.0677
     34 H           2.2855    3.6141   -3.3204 H       1  UNL11       0.3292
@<TRIPOS>BOND
     1     1     2    2
     2     2     3    1
     3     2     4    1
     4     4     5   ar
     5     5     6   ar
     6     5    24    1
     7     6     7    1
     8     6     8   ar
     9     8     9   ar
    10     8    25    1
    11     9    10    1
    12     9    23   ar
    13    10    11    1
    14    11    12   ar
    15    12    13   ar
    16    13    14   ar
    17    13    26    1
    18    14    15   ar
    19    14    27    1
    20    15    16    1
    21    15    22   ar
    22    16    17   ar
    23    17    18   ar
    24    17    28    1
    25    18    19   ar
    26    18    29    1
    27    19    20   ar
    28    19    30    1
    29    20    21   ar
    30    20    31    1
    31    21    16   ar
    32    21    32    1
    33    22    11   ar
    34    23     4   ar
    35    23    33    1
    36     3    34    1
@<TRIPOS>MOLECULE
*****
 34 36 0 0 0
SMALL
GASTEIGER

@<TRIPOS>ATOM
      1 O           5.2176    1.7376    4.2292 O.2     1  UNL11      -0.1300
      2 N           4.4243    2.6089    3.8480 N.4     1  UNL11       0.0062
      3 O           4.4872    3.8672    4.3781 O.2     1  UNL11      -0.3961
      4 C           3.4639    2.2724    2.8628 C.ar    1  UNL11       0.1278
      5 C           2.9969    3.2232    1.9636 C.ar    1  UNL11       0.0039
      6 C           2.0556    2.8444    1.0166 C.ar    1  UNL11       0.1290
      7 F           1.5742    3.7590    0.1145 F       1  UNL11      -0.2053
      8 C           1.5729    1.5572    0.9435 C.ar    1  UNL11       0.0161
      9 C           2.0215    0.6034    1.8227 C.ar    1  UNL11       0.1368
     10 O           1.5956   -0.7027    1.8224 O.3     1  UNL11      -0.4235
     11 C           0.3722   -1.1602    1.4311 C.ar    1  UNL11       0.3239
     12 N           0.1357   -2.4887    1.5182 N.ar    1  UNL11      -0.2030
     13 C          -1.0275   -3.0246    1.1594 C.ar    1  UNL11       0.0350
     14 C          -2.0390   -2.1994    0.6781 C.ar    1  UNL11      -0.0173
     15 C          -1.8199   -0.8540    0.5823 C.ar    1  UNL11       0.0778
     16 C          -2.8545    0.0552    0.0812 C.ar    1  UNL11       0.0006
     17 C          -4.1938   -0.1917    0.2304 C.ar    1  UNL11      -0.0526
     18 C          -5.1684    0.6846   -0.2528 C.ar    1  UNL11      -0.0611
     19 C          -4.7870    1.8256   -0.8953 C.ar    1  UNL11      -0.0617
     20 C          -3.4487    2.1127   -1.0670 C.ar    1  UNL11      -0.0611
     21 C          -2.5141    1.2256   -0.5774 C.ar    1  UNL11      -0.0526
     22 N          -0.6160   -0.3771    0.9638 N.ar    1  UNL11      -0.1946
     23 C           2.9628    0.9959    2.7643 C.ar    1  UNL11       0.0110
     24 H           3.3771    4.2309    2.0235 H       1  UNL11       0.0669
     25 H           0.8414    1.2686    0.2056 H       1  UNL11       0.0683
     26 H          -1.1912   -4.0845    1.2381 H       1  UNL11       0.0832
     27 H          -2.9479   -2.6709    0.4047 H       1  UNL11       0.0654
     28 H          -4.5542   -1.0646    0.7225 H       1  UNL11       0.0624
     29 H          -6.2199    0.4510   -0.1134 H       1  UNL11       0.0618
     30 H          -5.5506    2.5110   -1.2734 H       1  UNL11       0.0618
     31 H          -3.1407    3.0335   -1.5855 H       1  UNL11       0.0618
     32 H          -1.4666    1.4743   -0.7253 H       1  UNL11       0.0624
     33 H           3.3455    0.2642    3.4834 H       1  UNL11       0.0677
     34 H           5.1300    4.0698    5.0290 H       1  UNL11       0.3292
@<TRIPOS>BOND
     1     1     2    2
     2     2     3    1
     3     2     4    1
     4     4     5   ar
     5     5     6   ar
     6     5    24    1
     7     6     7    1
     8     6     8   ar
     9     8     9   ar
    10     8    25    1
    11     9    10    1
    12     9    23   ar
    13    10    11    1
    14    11    12   ar
    15    12    13   ar
    16    13    14   ar
    17    13    26    1
    18    14    15   ar
    19    14    27    1
    20    15    16    1
    21    15    22   ar
    22    16    17   ar
    23    17    18   ar
    24    17    28    1
    25    18    19   ar
    26    18    29    1
    27    19    20   ar
    28    19    30    1
    29    20    21   ar
    30    20    31    1
    31    21    16   ar
    32    21    32    1
    33    22    11   ar
    34    23     4   ar
    35    23    33    1
    36     3    34    1
@<TRIPOS>MOLECULE
*****
 34 36 0 0 0
SMALL
GASTEIGER

@<TRIPOS>ATOM
      1 O           2.1271    1.2198   -2.7471 O.2     1  UNL11      -0.1300
      2 N           2.4032    2.1392   -1.9647 N.4     1  UNL11       0.0062
      3 O           2.4573    3.4275   -2.4184 O.2     1  UNL11      -0.3961
      4 C           2.6580    1.8257   -0.6072 C.ar    1  UNL11       0.1278
      5 C           3.5302    2.5943    0.1540 C.ar    1  UNL11       0.0039
      6 C           3.7470    2.2464    1.4799 C.ar    1  UNL11       0.1290
      7 F           4.6021    2.9844    2.2585 F       1  UNL11      -0.2053
      8 C           3.1243    1.1644    2.0606 C.ar    1  UNL11       0.0161
      9 C           2.2593    0.3927    1.3256 C.ar    1  UNL11       0.1368
     10 O           1.5956   -0.7027    1.8224 O.3     1  UNL11      -0.4235
     11 C           0.3722   -1.1602    1.4311 C.ar    1  UNL11       0.3239
     12 N           0.1357   -2.4887    1.5182 N.ar    1  UNL11      -0.2030
     13 C          -1.0275   -3.0246    1.1594 C.ar    1  UNL11       0.0350
     14 C          -2.0390   -2.1994    0.6781 C.ar    1  UNL11      -0.0173
     15 C          -1.8199   -0.8540    0.5823 C.ar    1  UNL11       0.0778
     16 C          -2.8545    0.0552    0.0812 C.ar    1  UNL11       0.0006
     17 C          -2.5618    1.2147   -0.5871 C.ar    1  UNL11      -0.0526
     18 C          -3.5592    2.0715   -1.0590 C.ar    1  UNL11      -0.0611
     19 C          -4.8697    1.7544   -0.8538 C.ar    1  UNL11      -0.0617
     20 C          -5.2085    0.5962   -0.1853 C.ar    1  UNL11      -0.0611
     21 C          -4.1984   -0.2260    0.2664 C.ar    1  UNL11      -0.0526
     22 N          -0.6160   -0.3771    0.9638 N.ar    1  UNL11      -0.1946
     23 C           2.0517    0.7520    0.0010 C.ar    1  UNL11       0.0110
     24 H           4.0165    3.4413   -0.3039 H       1  UNL11       0.0669
     25 H           3.2968    0.8988    3.0913 H       1  UNL11       0.0683
     26 H          -1.1912   -4.0845    1.2381 H       1  UNL11       0.0832
     27 H          -2.9479   -2.6709    0.4047 H       1  UNL11       0.0654
     28 H          -1.5587    1.5169   -0.7783 H       1  UNL11       0.0624
     29 H          -3.2838    2.9814   -1.5842 H       1  UNL11       0.0618
     30 H          -5.6499    2.4256   -1.2232 H       1  UNL11       0.0618
     31 H          -6.2660    0.3401   -0.0196 H       1  UNL11       0.0618
     32 H          -4.4911   -1.1322    0.7900 H       1  UNL11       0.0624
     33 H           1.3689    0.1613   -0.6185 H       1  UNL11       0.0677
     34 H           2.2855    3.6141   -3.3204 H       1  UNL11       0.3292
@<TRIPOS>BOND
     1     1     2    2
     2     2     3    1
     3     2     4    1
     4     4     5   ar
     5     5     6   ar
     6     5    24    1
     7     6     7    1
     8     6     8   ar
     9     8     9   ar
    10     8    25    1
    11     9    10    1
    12     9    23   ar
    13    10    11    1
    14    11    12   ar
    15    12    13   ar
    16    13    14   ar
    17    13    26    1
    18    14    15   ar
    19    14    27    1
    20    15    16    1
    21    15    22   ar
    22    16    17   ar
    23    17    18   ar
    24    17    28    1
    25    18    19   ar
    26    18    29    1
    27    19    20   ar
    28    19    30    1
    29    20    21   ar
    30    20    31    1
    31    21    16   ar
    32    21    32    1
    33    22    11   ar
    34    23     4   ar
    35    23    33    1
    36     3    34    1
@<TRIPOS>MOLECULE
*****
 34 36 0 0 0
SMALL
GASTEIGER

@<TRIPOS>ATOM
      1 O           5.6984    3.4424    2.2425 O.2     1  UNL11      -0.1300
      2 N           4.7026    2.8565    2.6884 N.4     1  UNL11       0.0062
      3 O           4.4556    2.8582    4.0327 O.2     1  UNL11      -0.3961
      4 C           3.8389    2.1939    1.7822 C.ar    1  UNL11       0.1278
      5 C           3.6893    2.6440    0.4762 C.ar    1  UNL11       0.0039
      6 C           2.8308    1.9608   -0.3738 C.ar    1  UNL11       0.1290
      7 F           2.6606    2.3794   -1.6691 F       1  UNL11      -0.2053
      8 C           2.1253    0.8531    0.0394 C.ar    1  UNL11       0.0161
      9 C           2.2593    0.3927    1.3256 C.ar    1  UNL11       0.1368
     10 O           1.5956   -0.7027    1.8224 O.3     1  UNL11      -0.4235
     11 C           0.3722   -1.1602    1.4311 C.ar    1  UNL11       0.3239
     12 N           0.1357   -2.4887    1.5182 N.ar    1  UNL11      -0.2030
     13 C          -1.0275   -3.0246    1.1594 C.ar    1  UNL11       0.0350
     14 C          -2.0390   -2.1994    0.6781 C.ar    1  UNL11      -0.0173
     15 C          -1.8199   -0.8540    0.5823 C.ar    1  UNL11       0.0778
     16 C          -2.8545    0.0552    0.0812 C.ar    1  UNL11       0.0006
     17 C          -2.5618    1.2147   -0.5871 C.ar    1  UNL11      -0.0526
     18 C          -3.5592    2.0715   -1.0590 C.ar    1  UNL11      -0.0611
     19 C          -4.8697    1.7544   -0.8538 C.ar    1  UNL11      -0.0617
     20 C          -5.2085    0.5962   -0.1853 C.ar    1  UNL11      -0.0611
     21 C          -4.1984   -0.2260    0.2664 C.ar    1  UNL11      -0.0526
     22 N          -0.6160   -0.3771    0.9638 N.ar    1  UNL11      -0.1946
     23 C           3.1211    1.0854    2.1647 C.ar    1  UNL11       0.0110
     24 H           4.2433    3.5122    0.1555 H       1  UNL11       0.0669
     25 H           1.4596    0.3262   -0.6254 H       1  UNL11       0.0683
     26 H          -1.1912   -4.0845    1.2381 H       1  UNL11       0.0832
     27 H          -2.9479   -2.6709    0.4047 H       1  UNL11       0.0654
     28 H          -1.5587    1.5169   -0.7783 H       1  UNL11       0.0624
     29 H          -3.2838    2.9814   -1.5842 H       1  UNL11       0.0618
     30 H          -5.6499    2.4256   -1.2232 H       1  UNL11       0.0618
     31 H          -6.2660    0.3401   -0.0196 H       1  UNL11       0.0618
     32 H          -4.4911   -1.1322    0.7900 H       1  UNL11       0.0624
     33 H           3.2553    0.7494    3.1982 H       1  UNL11       0.0677
     34 H           5.0393    3.3025    4.6158 H       1  UNL11       0.3292
@<TRIPOS>BOND
     1     1     2    2
     2     2     3    1
     3     2     4    1
     4     4     5   ar
     5     5     6   ar
     6     5    24    1
     7     6     7    1
     8     6     8   ar
     9     8     9   ar
    10     8    25    1
    11     9    10    1
    12     9    23   ar
    13    10    11    1
    14    11    12   ar
    15    12    13   ar
    16    13    14   ar
    17    13    26    1
    18    14    15   ar
    19    14    27    1
    20    15    16    1
    21    15    22   ar
    22    16    17   ar
    23    17    18   ar
    24    17    28    1
    25    18    19   ar
    26    18    29    1
    27    19    20   ar
    28    19    30    1
    29    20    21   ar
    30    20    31    1
    31    21    16   ar
    32    21    32    1
    33    22    11   ar
    34    23     4   ar
    35    23    33    1
    36     3    34    1
@<TRIPOS>MOLECULE
*****
 34 36 0 0 0
SMALL
GASTEIGER

@<TRIPOS>ATOM
      1 O           0.1338    3.3975   -0.6088 O.2     1  UNL11      -0.1300
      2 N           1.2470    3.6683   -0.1383 N.4     1  UNL11       0.0062
      3 O           1.6647    4.9684   -0.0799 O.2     1  UNL11      -0.3961
      4 C           2.0643    2.6108    0.3308 C.ar    1  UNL11       0.1278
      5 C           3.4501    2.7002    0.2804 C.ar    1  UNL11       0.0039
      6 C           4.2076    1.6372    0.7522 C.ar    1  UNL11       0.1290
      7 F           5.5778    1.6938    0.7166 F       1  UNL11      -0.2053
      8 C           3.6265    0.5003    1.2671 C.ar    1  UNL11       0.0161
      9 C           2.2593    0.3927    1.3256 C.ar    1  UNL11       0.1368
     10 O           1.5956   -0.7027    1.8224 O.3     1  UNL11      -0.4235
     11 C           0.3722   -1.1602    1.4311 C.ar    1  UNL11       0.3239
     12 N           0.1357   -2.4887    1.5182 N.ar    1  UNL11      -0.2030
     13 C          -1.0275   -3.0246    1.1594 C.ar    1  UNL11       0.0350
     14 C          -2.0390   -2.1994    0.6781 C.ar    1  UNL11      -0.0173
     15 C          -1.8199   -0.8540    0.5823 C.ar    1  UNL11       0.0778
     16 C          -2.8545    0.0552    0.0812 C.ar    1  UNL11       0.0006
     17 C          -2.5618    1.2147   -0.5871 C.ar    1  UNL11      -0.0526
     18 C          -3.5592    2.0715   -1.0590 C.ar    1  UNL11      -0.0611
     19 C          -4.8697    1.7544   -0.8538 C.ar    1  UNL11      -0.0617
     20 C          -5.2085    0.5962   -0.1853 C.ar    1  UNL11      -0.0611
     21 C          -4.1984   -0.2260    0.2664 C.ar    1  UNL11      -0.0526
     22 N          -0.6160   -0.3771    0.9638 N.ar    1  UNL11      -0.1946
     23 C           1.5141    1.4630    0.8504 C.ar    1  UNL11       0.0110
     24 H           3.9023    3.5923   -0.1237 H       1  UNL11       0.0669
     25 H           4.2201   -0.3225    1.6322 H       1  UNL11       0.0683
     26 H          -1.1912   -4.0845    1.2381 H       1  UNL11       0.0832
     27 H          -2.9479   -2.6709    0.4047 H       1  UNL11       0.0654
     28 H          -1.5587    1.5169   -0.7783 H       1  UNL11       0.0624
     29 H          -3.2838    2.9814   -1.5842 H       1  UNL11       0.0618
     30 H          -5.6499    2.4256   -1.2232 H       1  UNL11       0.0618
     31 H          -6.2660    0.3401   -0.0196 H       1  UNL11       0.0618
     32 H          -4.4911   -1.1322    0.7900 H       1  UNL11       0.0624
     33 H           0.4206    1.4155    0.8798 H       1  UNL11       0.0677
     34 H           1.1090    5.6537   -0.3955 H       1  UNL11       0.3292
@<TRIPOS>BOND
     1     1     2    2
     2     2     3    1
     3     2     4    1
     4     4     5   ar
     5     5     6   ar
     6     5    24    1
     7     6     7    1
     8     6     8   ar
     9     8     9   ar
    10     8    25    1
    11     9    10    1
    12     9    23   ar
    13    10    11    1
    14    11    12   ar
    15    12    13   ar
    16    13    14   ar
    17    13    26    1
    18    14    15   ar
    19    14    27    1
    20    15    16    1
    21    15    22   ar
    22    16    17   ar
    23    17    18   ar
    24    17    28    1
    25    18    19   ar
    26    18    29    1
    27    19    20   ar
    28    19    30    1
    29    20    21   ar
    30    20    31    1
    31    21    16   ar
    32    21    32    1
    33    22    11   ar
    34    23     4   ar
    35    23    33    1
    36     3    34    1
@<TRIPOS>MOLECULE
*****
 34 36 0 0 0
SMALL
GASTEIGER

@<TRIPOS>ATOM
      1 O           2.0889    3.9822   -1.7415 O.2     1  UNL11      -0.1300
      2 N           1.5387    2.9853   -1.2544 N.4     1  UNL11       0.0062
      3 O           0.3023    2.6049   -1.6959 O.2     1  UNL11      -0.3961
      4 C           2.2141    2.2601   -0.2424 C.ar    1  UNL11       0.1278
      5 C           3.4703    2.6529    0.2031 C.ar    1  UNL11       0.0039
      6 C           4.0914    1.9093    1.1969 C.ar    1  UNL11       0.1290
      7 F           5.3318    2.2702    1.6588 F       1  UNL11      -0.2053
      8 C           3.4998    0.7969    1.7519 C.ar    1  UNL11       0.0161
      9 C           2.2593    0.3927    1.3256 C.ar    1  UNL11       0.1368
     10 O           1.5956   -0.7027    1.8224 O.3     1  UNL11      -0.4235
     11 C           0.3722   -1.1602    1.4311 C.ar    1  UNL11       0.3239
     12 N           0.1357   -2.4887    1.5182 N.ar    1  UNL11      -0.2030
     13 C          -1.0275   -3.0246    1.1594 C.ar    1  UNL11       0.0350
     14 C          -2.0390   -2.1994    0.6781 C.ar    1  UNL11      -0.0173
     15 C          -1.8199   -0.8540    0.5823 C.ar    1  UNL11       0.0778
     16 C          -2.8545    0.0552    0.0812 C.ar    1  UNL11       0.0006
     17 C          -2.9627    1.3561    0.4969 C.ar    1  UNL11      -0.0526
     18 C          -3.9544    2.2109    0.0101 C.ar    1  UNL11      -0.0611
     19 C          -4.8494    1.7472   -0.9087 C.ar    1  UNL11      -0.0617
     20 C          -4.7763    0.4437   -1.3543 C.ar    1  UNL11      -0.0611
     21 C          -3.7847   -0.3719   -0.8524 C.ar    1  UNL11      -0.0526
     22 N          -0.6160   -0.3771    0.9638 N.ar    1  UNL11      -0.1946
     23 C           1.6497    1.1454    0.3314 C.ar    1  UNL11       0.0110
     24 H           3.9311    3.5248   -0.2338 H       1  UNL11       0.0669
     25 H           3.9873    0.2230    2.5238 H       1  UNL11       0.0683
     26 H          -1.1912   -4.0845    1.2381 H       1  UNL11       0.0832
     27 H          -2.9479   -2.6709    0.4047 H       1  UNL11       0.0654
     28 H          -2.2944    1.7765    1.2116 H       1  UNL11       0.0624
     29 H          -4.0050    3.2357    0.3662 H       1  UNL11       0.0618
     30 H          -5.6256    2.4169   -1.2892 H       1  UNL11       0.0618
     31 H          -5.4985    0.0693   -2.0958 H       1  UNL11       0.0618
     32 H          -3.7482   -1.3942   -1.2192 H       1  UNL11       0.0624
     33 H           0.6598    0.8554   -0.0357 H       1  UNL11       0.0677
     34 H          -0.1280    3.0981   -2.3664 H       1  UNL11       0.3292
@<TRIPOS>BOND
     1     1     2    2
     2     2     3    1
     3     2     4    1
     4     4     5   ar
     5     5     6   ar
     6     5    24    1
     7     6     7    1
     8     6     8   ar
     9     8     9   ar
    10     8    25    1
    11     9    10    1
    12     9    23   ar
    13    10    11    1
    14    11    12   ar
    15    12    13   ar
    16    13    14   ar
    17    13    26    1
    18    14    15   ar
    19    14    27    1
    20    15    16    1
    21    15    22   ar
    22    16    17   ar
    23    17    18   ar
    24    17    28    1
    25    18    19   ar
    26    18    29    1
    27    19    20   ar
    28    19    30    1
    29    20    21   ar
    30    20    31    1
    31    21    16   ar
    32    21    32    1
    33    22    11   ar
    34    23     4   ar
    35    23    33    1
    36     3    34    1
@<TRIPOS>MOLECULE
*****
 34 36 0 0 0
SMALL
GASTEIGER

@<TRIPOS>ATOM
      1 O           5.1336    3.9196    2.8274 O.2     1  UNL11      -0.1300
      2 N           4.8224    2.8137    2.3649 N.4     1  UNL11       0.0062
      3 O           5.7235    2.1096    1.6163 O.2     1  UNL11      -0.3961
      4 C           3.5270    2.3048    2.6280 C.ar    1  UNL11       0.1278
      5 C           2.6149    3.0262    3.3886 C.ar    1  UNL11       0.0039
      6 C           1.3579    2.4847    3.6187 C.ar    1  UNL11       0.1290
      7 F           0.4343    3.1713    4.3656 F       1  UNL11      -0.2053
      8 C           0.9903    1.2568    3.1161 C.ar    1  UNL11       0.0161
      9 C           1.8768    0.5288    2.3625 C.ar    1  UNL11       0.1368
     10 O           1.5956   -0.7027    1.8224 O.3     1  UNL11      -0.4235
     11 C           0.3722   -1.1602    1.4311 C.ar    1  UNL11       0.3239
     12 N           0.1357   -2.4887    1.5182 N.ar    1  UNL11      -0.2030
     13 C          -1.0275   -3.0246    1.1594 C.ar    1  UNL11       0.0350
     14 C          -2.0390   -2.1994    0.6781 C.ar    1  UNL11      -0.0173
     15 C          -1.8199   -0.8540    0.5823 C.ar    1  UNL11       0.0778
     16 C          -2.8545    0.0552    0.0812 C.ar    1  UNL11       0.0006
     17 C          -2.9627    1.3561    0.4969 C.ar    1  UNL11      -0.0526
     18 C          -3.9544    2.2109    0.0101 C.ar    1  UNL11      -0.0611
     19 C          -4.8494    1.7472   -0.9087 C.ar    1  UNL11      -0.0617
     20 C          -4.7763    0.4437   -1.3543 C.ar    1  UNL11      -0.0611
     21 C          -3.7847   -0.3719   -0.8524 C.ar    1  UNL11      -0.0526
     22 N          -0.6160   -0.3771    0.9638 N.ar    1  UNL11      -0.1946
     23 C           3.1302    1.0821    2.1402 C.ar    1  UNL11       0.0110
     24 H           2.9060    3.9879    3.7809 H       1  UNL11       0.0669
     25 H           0.0121    0.8411    3.2983 H       1  UNL11       0.0683
     26 H          -1.1912   -4.0845    1.2381 H       1  UNL11       0.0832
     27 H          -2.9479   -2.6709    0.4047 H       1  UNL11       0.0654
     28 H          -2.2944    1.7765    1.2116 H       1  UNL11       0.0624
     29 H          -4.0050    3.2357    0.3662 H       1  UNL11       0.0618
     30 H          -5.6256    2.4169   -1.2892 H       1  UNL11       0.0618
     31 H          -5.4985    0.0693   -2.0958 H       1  UNL11       0.0618
     32 H          -3.7482   -1.3942   -1.2192 H       1  UNL11       0.0624
     33 H           3.8657    0.5323    1.5438 H       1  UNL11       0.0677
     34 H           6.5757    2.4637    1.4536 H       1  UNL11       0.3292
@<TRIPOS>BOND
     1     1     2    2
     2     2     3    1
     3     2     4    1
     4     4     5   ar
     5     5     6   ar
     6     5    24    1
     7     6     7    1
     8     6     8   ar
     9     8     9   ar
    10     8    25    1
    11     9    10    1
    12     9    23   ar
    13    10    11    1
    14    11    12   ar
    15    12    13   ar
    16    13    14   ar
    17    13    26    1
    18    14    15   ar
    19    14    27    1
    20    15    16    1
    21    15    22   ar
    22    16    17   ar
    23    17    18   ar
    24    17    28    1
    25    18    19   ar
    26    18    29    1
    27    19    20   ar
    28    19    30    1
    29    20    21   ar
    30    20    31    1
    31    21    16   ar
    32    21    32    1
    33    22    11   ar
    34    23     4   ar
    35    23    33    1
    36     3    34    1
@<TRIPOS>MOLECULE
*****
 34 36 0 0 0
SMALL
GASTEIGER

@<TRIPOS>ATOM
      1 O           1.7896    4.6817   -0.5990 O.2     1  UNL11      -0.1300
      2 N           1.2470    3.6683   -0.1383 N.4     1  UNL11       0.0062
      3 O          -0.1166    3.5870   -0.0903 O.2     1  UNL11      -0.3961
      4 C           2.0643    2.6108    0.3308 C.ar    1  UNL11       0.1278
      5 C           3.4501    2.7002    0.2804 C.ar    1  UNL11       0.0039
      6 C           4.2076    1.6372    0.7522 C.ar    1  UNL11       0.1290
      7 F           5.5778    1.6938    0.7166 F       1  UNL11      -0.2053
      8 C           3.6265    0.5003    1.2671 C.ar    1  UNL11       0.0161
      9 C           2.2593    0.3927    1.3256 C.ar    1  UNL11       0.1368
     10 O           1.5956   -0.7027    1.8224 O.3     1  UNL11      -0.4235
     11 C           0.3722   -1.1602    1.4311 C.ar    1  UNL11       0.3239
     12 N           0.1357   -2.4887    1.5182 N.ar    1  UNL11      -0.2030
     13 C          -1.0275   -3.0246    1.1594 C.ar    1  UNL11       0.0350
     14 C          -2.0390   -2.1994    0.6781 C.ar    1  UNL11      -0.0173
     15 C          -1.8199   -0.8540    0.5823 C.ar    1  UNL11       0.0778
     16 C          -2.8545    0.0552    0.0812 C.ar    1  UNL11       0.0006
     17 C          -4.1938   -0.1917    0.2304 C.ar    1  UNL11      -0.0526
     18 C          -5.1684    0.6846   -0.2528 C.ar    1  UNL11      -0.0611
     19 C          -4.7870    1.8256   -0.8953 C.ar    1  UNL11      -0.0617
     20 C          -3.4487    2.1127   -1.0670 C.ar    1  UNL11      -0.0611
     21 C          -2.5141    1.2256   -0.5774 C.ar    1  UNL11      -0.0526
     22 N          -0.6160   -0.3771    0.9638 N.ar    1  UNL11      -0.1946
     23 C           1.5141    1.4630    0.8504 C.ar    1  UNL11       0.0110
     24 H           3.9023    3.5923   -0.1237 H       1  UNL11       0.0669
     25 H           4.2201   -0.3225    1.6322 H       1  UNL11       0.0683
     26 H          -1.1912   -4.0845    1.2381 H       1  UNL11       0.0832
     27 H          -2.9479   -2.6709    0.4047 H       1  UNL11       0.0654
     28 H          -4.5542   -1.0646    0.7225 H       1  UNL11       0.0624
     29 H          -6.2199    0.4510   -0.1134 H       1  UNL11       0.0618
     30 H          -5.5506    2.5110   -1.2734 H       1  UNL11       0.0618
     31 H          -3.1407    3.0335   -1.5855 H       1  UNL11       0.0618
     32 H          -1.4666    1.4743   -0.7253 H       1  UNL11       0.0624
     33 H           0.4206    1.4155    0.8798 H       1  UNL11       0.0677
     34 H          -0.6397    4.2975   -0.4057 H       1  UNL11       0.3292
@<TRIPOS>BOND
     1     1     2    2
     2     2     3    1
     3     2     4    1
     4     4     5   ar
     5     5     6   ar
     6     5    24    1
     7     6     7    1
     8     6     8   ar
     9     8     9   ar
    10     8    25    1
    11     9    10    1
    12     9    23   ar
    13    10    11    1
    14    11    12   ar
    15    12    13   ar
    16    13    14   ar
    17    13    26    1
    18    14    15   ar
    19    14    27    1
    20    15    16    1
    21    15    22   ar
    22    16    17   ar
    23    17    18   ar
    24    17    28    1
    25    18    19   ar
    26    18    29    1
    27    19    20   ar
    28    19    30    1
    29    20    21   ar
    30    20    31    1
    31    21    16   ar
    32    21    32    1
    33    22    11   ar
    34    23     4   ar
    35    23    33    1
    36     3    34    1
@<TRIPOS>MOLECULE
*****
 34 36 0 0 0
SMALL
GASTEIGER

@<TRIPOS>ATOM
      1 O           4.6399   -5.6801    1.4366 O.2     1  UNL11      -0.1300
      2 N           3.7945   -4.9695    1.9969 N.4     1  UNL11       0.0062
      3 O           2.7984   -5.5471    2.7335 O.2     1  UNL11      -0.3961
      4 C           3.8851   -3.5630    1.8566 C.ar    1  UNL11       0.1278
      5 C           5.1132   -2.9390    1.6742 C.ar    1  UNL11       0.0039
      6 C           5.1499   -1.5579    1.5419 C.ar    1  UNL11       0.1290
      7 F           6.3461   -0.9112    1.3606 F       1  UNL11      -0.2053
      8 C           4.0073   -0.7911    1.5863 C.ar    1  UNL11       0.0161
      9 C           2.7846   -1.3885    1.7657 C.ar    1  UNL11       0.1368
     10 O           1.5956   -0.7027    1.8224 O.3     1  UNL11      -0.4235
     11 C           0.3722   -1.1602    1.4311 C.ar    1  UNL11       0.3239
     12 N           0.1357   -2.4887    1.5182 N.ar    1  UNL11      -0.2030
     13 C          -1.0275   -3.0246    1.1594 C.ar    1  UNL11       0.0350
     14 C          -2.0390   -2.1994    0.6781 C.ar    1  UNL11      -0.0173
     15 C          -1.8199   -0.8540    0.5823 C.ar    1  UNL11       0.0778
     16 C          -2.8545    0.0552    0.0812 C.ar    1  UNL11       0.0006
     17 C          -2.5618    1.2147   -0.5871 C.ar    1  UNL11      -0.0526
     18 C          -3.5592    2.0715   -1.0590 C.ar    1  UNL11      -0.0611
     19 C          -4.8697    1.7544   -0.8538 C.ar    1  UNL11      -0.0617
     20 C          -5.2085    0.5962   -0.1853 C.ar    1  UNL11      -0.0611
     21 C          -4.1984   -0.2260    0.2664 C.ar    1  UNL11      -0.0526
     22 N          -0.6160   -0.3771    0.9638 N.ar    1  UNL11      -0.1946
     23 C           2.7626   -2.7701    1.8966 C.ar    1  UNL11       0.0110
     24 H           6.0065   -3.5426    1.6399 H       1  UNL11       0.0669
     25 H           4.0420    0.2817    1.4830 H       1  UNL11       0.0683
     26 H          -1.1912   -4.0845    1.2381 H       1  UNL11       0.0832
     27 H          -2.9479   -2.6709    0.4047 H       1  UNL11       0.0654
     28 H          -1.5587    1.5169   -0.7783 H       1  UNL11       0.0624
     29 H          -3.2838    2.9814   -1.5842 H       1  UNL11       0.0618
     30 H          -5.6499    2.4256   -1.2232 H       1  UNL11       0.0618
     31 H          -6.2660    0.3401   -0.0196 H       1  UNL11       0.0618
     32 H          -4.4911   -1.1322    0.7900 H       1  UNL11       0.0624
     33 H           1.8066   -3.2841    2.0413 H       1  UNL11       0.0677
     34 H           2.7559   -6.4797    2.8141 H       1  UNL11       0.3292
@<TRIPOS>BOND
     1     1     2    2
     2     2     3    1
     3     2     4    1
     4     4     5   ar
     5     5     6   ar
     6     5    24    1
     7     6     7    1
     8     6     8   ar
     9     8     9   ar
    10     8    25    1
    11     9    10    1
    12     9    23   ar
    13    10    11    1
    14    11    12   ar
    15    12    13   ar
    16    13    14   ar
    17    13    26    1
    18    14    15   ar
    19    14    27    1
    20    15    16    1
    21    15    22   ar
    22    16    17   ar
    23    17    18   ar
    24    17    28    1
    25    18    19   ar
    26    18    29    1
    27    19    20   ar
    28    19    30    1
    29    20    21   ar
    30    20    31    1
    31    21    16   ar
    32    21    32    1
    33    22    11   ar
    34    23     4   ar
    35    23    33    1
    36     3    34    1
@<TRIPOS>MOLECULE
*****
 34 36 0 0 0
SMALL
GASTEIGER

@<TRIPOS>ATOM
      1 O           4.7465   -5.5808    2.5006 O.2     1  UNL11      -0.1300
      2 N           3.7945   -4.9695    1.9969 N.4     1  UNL11       0.0062
      3 O           2.6839   -5.6539    1.5888 O.2     1  UNL11      -0.3961
      4 C           3.8851   -3.5630    1.8566 C.ar    1  UNL11       0.1278
      5 C           5.1132   -2.9390    1.6742 C.ar    1  UNL11       0.0039
      6 C           5.1499   -1.5579    1.5419 C.ar    1  UNL11       0.1290
      7 F           6.3461   -0.9112    1.3606 F       1  UNL11      -0.2053
      8 C           4.0073   -0.7911    1.5863 C.ar    1  UNL11       0.0161
      9 C           2.7846   -1.3885    1.7657 C.ar    1  UNL11       0.1368
     10 O           1.5956   -0.7027    1.8224 O.3     1  UNL11      -0.4235
     11 C           0.3722   -1.1602    1.4311 C.ar    1  UNL11       0.3239
     12 N           0.1357   -2.4887    1.5182 N.ar    1  UNL11      -0.2030
     13 C          -1.0275   -3.0246    1.1594 C.ar    1  UNL11       0.0350
     14 C          -2.0390   -2.1994    0.6781 C.ar    1  UNL11      -0.0173
     15 C          -1.8199   -0.8540    0.5823 C.ar    1  UNL11       0.0778
     16 C          -2.8545    0.0552    0.0812 C.ar    1  UNL11       0.0006
     17 C          -2.9627    1.3561    0.4969 C.ar    1  UNL11      -0.0526
     18 C          -3.9544    2.2109    0.0101 C.ar    1  UNL11      -0.0611
     19 C          -4.8494    1.7472   -0.9087 C.ar    1  UNL11      -0.0617
     20 C          -4.7763    0.4437   -1.3543 C.ar    1  UNL11      -0.0611
     21 C          -3.7847   -0.3719   -0.8524 C.ar    1  UNL11      -0.0526
     22 N          -0.6160   -0.3771    0.9638 N.ar    1  UNL11      -0.1946
     23 C           2.7626   -2.7701    1.8966 C.ar    1  UNL11       0.0110
     24 H           6.0065   -3.5426    1.6399 H       1  UNL11       0.0669
     25 H           4.0420    0.2817    1.4830 H       1  UNL11       0.0683
     26 H          -1.1912   -4.0845    1.2381 H       1  UNL11       0.0832
     27 H          -2.9479   -2.6709    0.4047 H       1  UNL11       0.0654
     28 H          -2.2944    1.7765    1.2116 H       1  UNL11       0.0624
     29 H          -4.0050    3.2357    0.3662 H       1  UNL11       0.0618
     30 H          -5.6256    2.4169   -1.2892 H       1  UNL11       0.0618
     31 H          -5.4985    0.0693   -2.0958 H       1  UNL11       0.0618
     32 H          -3.7482   -1.3942   -1.2192 H       1  UNL11       0.0624
     33 H           1.8066   -3.2841    2.0413 H       1  UNL11       0.0677
     34 H           2.6435   -6.5845    1.6904 H       1  UNL11       0.3292
@<TRIPOS>BOND
     1     1     2    2
     2     2     3    1
     3     2     4    1
     4     4     5   ar
     5     5     6   ar
     6     5    24    1
     7     6     7    1
     8     6     8   ar
     9     8     9   ar
    10     8    25    1
    11     9    10    1
    12     9    23   ar
    13    10    11    1
    14    11    12   ar
    15    12    13   ar
    16    13    14   ar
    17    13    26    1
    18    14    15   ar
    19    14    27    1
    20    15    16    1
    21    15    22   ar
    22    16    17   ar
    23    17    18   ar
    24    17    28    1
    25    18    19   ar
    26    18    29    1
    27    19    20   ar
    28    19    30    1
    29    20    21   ar
    30    20    31    1
    31    21    16   ar
    32    21    32    1
    33    22    11   ar
    34    23     4   ar
    35    23    33    1
    36     3    34    1
@<TRIPOS>MOLECULE
*****
 34 36 0 0 0
SMALL
GASTEIGER

@<TRIPOS>ATOM
      1 O          -0.7660    3.6882    1.8647 O.2     1  UNL11      -0.1300
      2 N           0.3864    3.9261    2.2508 N.4     1  UNL11       0.0062
      3 O           0.6683    5.1145    2.8644 O.2     1  UNL11      -0.3961
      4 C           1.3904    2.9488    2.0428 C.ar    1  UNL11       0.1278
      5 C           2.7174    3.3144    1.8529 C.ar    1  UNL11       0.0039
      6 C           3.6643    2.3196    1.6528 C.ar    1  UNL11       0.1290
      7 F           4.9829    2.6470    1.4622 F       1  UNL11      -0.2053
      8 C           3.3269    0.9850    1.6371 C.ar    1  UNL11       0.0161
      9 C           2.0215    0.6034    1.8227 C.ar    1  UNL11       0.1368
     10 O           1.5956   -0.7027    1.8224 O.3     1  UNL11      -0.4235
     11 C           0.3722   -1.1602    1.4311 C.ar    1  UNL11       0.3239
     12 N           0.1357   -2.4887    1.5182 N.ar    1  UNL11      -0.2030
     13 C          -1.0275   -3.0246    1.1594 C.ar    1  UNL11       0.0350
     14 C          -2.0390   -2.1994    0.6781 C.ar    1  UNL11      -0.0173
     15 C          -1.8199   -0.8540    0.5823 C.ar    1  UNL11       0.0778
     16 C          -2.8545    0.0552    0.0812 C.ar    1  UNL11       0.0006
     17 C          -2.9627    1.3561    0.4969 C.ar    1  UNL11      -0.0526
     18 C          -3.9544    2.2109    0.0101 C.ar    1  UNL11      -0.0611
     19 C          -4.8494    1.7472   -0.9087 C.ar    1  UNL11      -0.0617
     20 C          -4.7763    0.4437   -1.3543 C.ar    1  UNL11      -0.0611
     21 C          -3.7847   -0.3719   -0.8524 C.ar    1  UNL11      -0.0526
     22 N          -0.6160   -0.3771    0.9638 N.ar    1  UNL11      -0.1946
     23 C           1.0851    1.6084    2.0217 C.ar    1  UNL11       0.0110
     24 H           2.9785    4.3609    1.8657 H       1  UNL11       0.0669
     25 H           4.0670    0.2164    1.4810 H       1  UNL11       0.0683
     26 H          -1.1912   -4.0845    1.2381 H       1  UNL11       0.0832
     27 H          -2.9479   -2.6709    0.4047 H       1  UNL11       0.0654
     28 H          -2.2944    1.7765    1.2116 H       1  UNL11       0.0624
     29 H          -4.0050    3.2357    0.3662 H       1  UNL11       0.0618
     30 H          -5.6256    2.4169   -1.2892 H       1  UNL11       0.0618
     31 H          -5.4985    0.0693   -2.0958 H       1  UNL11       0.0618
     32 H          -3.7482   -1.3942   -1.2192 H       1  UNL11       0.0624
     33 H           0.0333    1.3447    2.1736 H       1  UNL11       0.0677
     34 H          -0.0100    5.7480    2.9927 H       1  UNL11       0.3292
@<TRIPOS>BOND
     1     1     2    2
     2     2     3    1
     3     2     4    1
     4     4     5   ar
     5     5     6   ar
     6     5    24    1
     7     6     7    1
     8     6     8   ar
     9     8     9   ar
    10     8    25    1
    11     9    10    1
    12     9    23   ar
    13    10    11    1
    14    11    12   ar
    15    12    13   ar
    16    13    14   ar
    17    13    26    1
    18    14    15   ar
    19    14    27    1
    20    15    16    1
    21    15    22   ar
    22    16    17   ar
    23    17    18   ar
    24    17    28    1
    25    18    19   ar
    26    18    29    1
    27    19    20   ar
    28    19    30    1
    29    20    21   ar
    30    20    31    1
    31    21    16   ar
    32    21    32    1
    33    22    11   ar
    34    23     4   ar
    35    23    33    1
    36     3    34    1
@<TRIPOS>MOLECULE
*****
 34 36 0 0 0
SMALL
GASTEIGER

@<TRIPOS>ATOM
      1 O           7.0426   -1.9588    3.7316 O.2     1  UNL11      -0.1300
      2 N           5.9507   -1.3744    3.7337 N.4     1  UNL11       0.0062
      3 O           5.6905   -0.4190    4.6759 O.2     1  UNL11      -0.3961
      4 C           4.9923   -1.7169    2.7486 C.ar    1  UNL11       0.1278
      5 C           5.2625   -2.6901    1.7943 C.ar    1  UNL11       0.0039
      6 C           4.2909   -2.9901    0.8497 C.ar    1  UNL11       0.1290
      7 F           4.5261   -3.9458   -0.1061 F       1  UNL11      -0.2053
      8 C           3.0707   -2.3526    0.8316 C.ar    1  UNL11       0.0161
      9 C           2.7846   -1.3885    1.7657 C.ar    1  UNL11       0.1368
     10 O           1.5956   -0.7027    1.8224 O.3     1  UNL11      -0.4235
     11 C           0.3722   -1.1602    1.4311 C.ar    1  UNL11       0.3239
     12 N           0.1357   -2.4887    1.5182 N.ar    1  UNL11      -0.2030
     13 C          -1.0275   -3.0246    1.1594 C.ar    1  UNL11       0.0350
     14 C          -2.0390   -2.1994    0.6781 C.ar    1  UNL11      -0.0173
     15 C          -1.8199   -0.8540    0.5823 C.ar    1  UNL11       0.0778
     16 C          -2.8545    0.0552    0.0812 C.ar    1  UNL11       0.0006
     17 C          -2.6596    1.4060   -0.0381 C.ar    1  UNL11      -0.0526
     18 C          -3.6556    2.2601   -0.5176 C.ar    1  UNL11      -0.0611
     19 C          -4.8647    1.7447   -0.8816 C.ar    1  UNL11      -0.0617
     20 C          -5.1030    0.3899   -0.7773 C.ar    1  UNL11      -0.0611
     21 C          -4.0974   -0.4234   -0.3002 C.ar    1  UNL11      -0.0526
     22 N          -0.6160   -0.3771    0.9638 N.ar    1  UNL11      -0.1946
     23 C           3.7652   -1.0984    2.7043 C.ar    1  UNL11       0.0110
     24 H           6.2194   -3.1877    1.8111 H       1  UNL11       0.0669
     25 H           2.3196   -2.5899    0.0952 H       1  UNL11       0.0683
     26 H          -1.1912   -4.0845    1.2381 H       1  UNL11       0.0832
     27 H          -2.9479   -2.6709    0.4047 H       1  UNL11       0.0654
     28 H          -1.7382    1.8680    0.2294 H       1  UNL11       0.0624
     29 H          -3.4599    3.3255   -0.5965 H       1  UNL11       0.0618
     30 H          -5.6440    2.4139   -1.2566 H       1  UNL11       0.0618
     31 H          -6.0787   -0.0262   -1.0710 H       1  UNL11       0.0618
     32 H          -4.3098   -1.4867   -0.2275 H       1  UNL11       0.0624
     33 H           3.5752   -0.3353    3.4662 H       1  UNL11       0.0677
     34 H           6.3379   -0.2068    5.3192 H       1  UNL11       0.3292
@<TRIPOS>BOND
     1     1     2    2
     2     2     3    1
     3     2     4    1
     4     4     5   ar
     5     5     6   ar
     6     5    24    1
     7     6     7    1
     8     6     8   ar
     9     8     9   ar
    10     8    25    1
    11     9    10    1
    12     9    23   ar
    13    10    11    1
    14    11    12   ar
    15    12    13   ar
    16    13    14   ar
    17    13    26    1
    18    14    15   ar
    19    14    27    1
    20    15    16    1
    21    15    22   ar
    22    16    17   ar
    23    17    18   ar
    24    17    28    1
    25    18    19   ar
    26    18    29    1
    27    19    20   ar
    28    19    30    1
    29    20    21   ar
    30    20    31    1
    31    21    16   ar
    32    21    32    1
    33    22    11   ar
    34    23     4   ar
    35    23    33    1
    36     3    34    1
@<TRIPOS>MOLECULE
*****
 34 36 0 0 0
SMALL
GASTEIGER

@<TRIPOS>ATOM
      1 O           6.4870    2.3190    0.4673 O.2     1  UNL11      -0.1300
      2 N           5.8345    1.3597    0.9006 N.4     1  UNL11       0.0062
      3 O           6.4820    0.2651    1.4014 O.2     1  UNL11      -0.3961
      4 C           4.4200    1.4253    0.8641 C.ar    1  UNL11       0.1278
      5 C           3.7677    2.5404    0.3524 C.ar    1  UNL11       0.0039
      6 C           2.3799    2.5570    0.3386 C.ar    1  UNL11       0.1290
      7 F           1.7054    3.6428   -0.1597 F       1  UNL11      -0.2053
      8 C           1.6338    1.5032    0.8161 C.ar    1  UNL11       0.0161
      9 C           2.2593    0.3927    1.3256 C.ar    1  UNL11       0.1368
     10 O           1.5956   -0.7027    1.8224 O.3     1  UNL11      -0.4235
     11 C           0.3722   -1.1602    1.4311 C.ar    1  UNL11       0.3239
     12 N           0.1357   -2.4887    1.5182 N.ar    1  UNL11      -0.2030
     13 C          -1.0275   -3.0246    1.1594 C.ar    1  UNL11       0.0350
     14 C          -2.0390   -2.1994    0.6781 C.ar    1  UNL11      -0.0173
     15 C          -1.8199   -0.8540    0.5823 C.ar    1  UNL11       0.0778
     16 C          -2.8545    0.0552    0.0812 C.ar    1  UNL11       0.0006
     17 C          -3.8014   -0.3301   -0.8308 C.ar    1  UNL11      -0.0526
     18 C          -4.7815    0.5481   -1.2992 C.ar    1  UNL11      -0.0611
     19 C          -4.8069    1.8326   -0.8415 C.ar    1  UNL11      -0.0617
     20 C          -3.8717    2.2620    0.0773 C.ar    1  UNL11      -0.0611
     21 C          -2.9190    1.3684    0.5179 C.ar    1  UNL11      -0.0526
     22 N          -0.6160   -0.3771    0.9638 N.ar    1  UNL11      -0.1946
     23 C           3.6473    0.3894    1.3333 C.ar    1  UNL11       0.0110
     24 H           4.3551    3.3645   -0.0209 H       1  UNL11       0.0669
     25 H           0.5557    1.5217    0.8029 H       1  UNL11       0.0683
     26 H          -1.1912   -4.0845    1.2381 H       1  UNL11       0.0832
     27 H          -2.9479   -2.6709    0.4047 H       1  UNL11       0.0654
     28 H          -3.8341   -1.3187   -1.2254 H       1  UNL11       0.0624
     29 H          -5.5139    0.2020   -2.0226 H       1  UNL11       0.0618
     30 H          -5.5743    2.5196   -1.2088 H       1  UNL11       0.0618
     31 H          -3.8921    3.2986    0.4468 H       1  UNL11       0.0618
     32 H          -2.1937    1.7308    1.2414 H       1  UNL11       0.0624
     33 H           4.1835   -0.4783    1.7315 H       1  UNL11       0.0677
     34 H           7.4186    0.2412    1.4166 H       1  UNL11       0.3292
@<TRIPOS>BOND
     1     1     2    2
     2     2     3    1
     3     2     4    1
     4     4     5   ar
     5     5     6   ar
     6     5    24    1
     7     6     7    1
     8     6     8   ar
     9     8     9   ar
    10     8    25    1
    11     9    10    1
    12     9    23   ar
    13    10    11    1
    14    11    12   ar
    15    12    13   ar
    16    13    14   ar
    17    13    26    1
    18    14    15   ar
    19    14    27    1
    20    15    16    1
    21    15    22   ar
    22    16    17   ar
    23    17    18   ar
    24    17    28    1
    25    18    19   ar
    26    18    29    1
    27    19    20   ar
    28    19    30    1
    29    20    21   ar
    30    20    31    1
    31    21    16   ar
    32    21    32    1
    33    22    11   ar
    34    23     4   ar
    35    23    33    1
    36     3    34    1
@<TRIPOS>MOLECULE
*****
 34 36 0 0 0
SMALL
GASTEIGER

@<TRIPOS>ATOM
      1 O           6.3933    2.6014    1.3168 O.2     1  UNL11      -0.1300
      2 N           5.5288    2.0480    2.0096 N.4     1  UNL11       0.0062
      3 O           5.8064    1.7093    3.3044 O.2     1  UNL11      -0.3961
      4 C           4.2631    1.7787    1.4336 C.ar    1  UNL11       0.1278
      5 C           3.7465    2.5881    0.4292 C.ar    1  UNL11       0.0039
      6 C           2.5017    2.2829   -0.1033 C.ar    1  UNL11       0.1290
      7 F           1.9633    3.0619   -1.0959 F       1  UNL11      -0.2053
      8 C           1.7665    1.2042    0.3343 C.ar    1  UNL11       0.0161
      9 C           2.2593    0.3927    1.3256 C.ar    1  UNL11       0.1368
     10 O           1.5956   -0.7027    1.8224 O.3     1  UNL11      -0.4235
     11 C           0.3722   -1.1602    1.4311 C.ar    1  UNL11       0.3239
     12 N           0.1357   -2.4887    1.5182 N.ar    1  UNL11      -0.2030
     13 C          -1.0275   -3.0246    1.1594 C.ar    1  UNL11       0.0350
     14 C          -2.0390   -2.1994    0.6781 C.ar    1  UNL11      -0.0173
     15 C          -1.8199   -0.8540    0.5823 C.ar    1  UNL11       0.0778
     16 C          -2.8545    0.0552    0.0812 C.ar    1  UNL11       0.0006
     17 C          -3.8014   -0.3301   -0.8308 C.ar    1  UNL11      -0.0526
     18 C          -4.7815    0.5481   -1.2992 C.ar    1  UNL11      -0.0611
     19 C          -4.8069    1.8326   -0.8415 C.ar    1  UNL11      -0.0617
     20 C          -3.8717    2.2620    0.0773 C.ar    1  UNL11      -0.0611
     21 C          -2.9190    1.3684    0.5179 C.ar    1  UNL11      -0.0526
     22 N          -0.6160   -0.3771    0.9638 N.ar    1  UNL11      -0.1946
     23 C           3.5053    0.7094    1.8490 C.ar    1  UNL11       0.0110
     24 H           4.3249    3.4324    0.0886 H       1  UNL11       0.0669
     25 H           0.7997    0.9720   -0.0831 H       1  UNL11       0.0683
     26 H          -1.1912   -4.0845    1.2381 H       1  UNL11       0.0832
     27 H          -2.9479   -2.6709    0.4047 H       1  UNL11       0.0654
     28 H          -3.8341   -1.3187   -1.2254 H       1  UNL11       0.0624
     29 H          -5.5139    0.2020   -2.0226 H       1  UNL11       0.0618
     30 H          -5.5743    2.5196   -1.2088 H       1  UNL11       0.0618
     31 H          -3.8921    3.2986    0.4468 H       1  UNL11       0.0618
     32 H          -2.1937    1.7308    1.2414 H       1  UNL11       0.0624
     33 H           3.9329    0.0862    2.6413 H       1  UNL11       0.0677
     34 H           6.6500    1.8961    3.6669 H       1  UNL11       0.3292
@<TRIPOS>BOND
     1     1     2    2
     2     2     3    1
     3     2     4    1
     4     4     5   ar
     5     5     6   ar
     6     5    24    1
     7     6     7    1
     8     6     8   ar
     9     8     9   ar
    10     8    25    1
    11     9    10    1
    12     9    23   ar
    13    10    11    1
    14    11    12   ar
    15    12    13   ar
    16    13    14   ar
    17    13    26    1
    18    14    15   ar
    19    14    27    1
    20    15    16    1
    21    15    22   ar
    22    16    17   ar
    23    17    18   ar
    24    17    28    1
    25    18    19   ar
    26    18    29    1
    27    19    20   ar
    28    19    30    1
    29    20    21   ar
    30    20    31    1
    31    21    16   ar
    32    21    32    1
    33    22    11   ar
    34    23     4   ar
    35    23    33    1
    36     3    34    1
@<TRIPOS>MOLECULE
*****
 34 36 0 0 0
SMALL
GASTEIGER

@<TRIPOS>ATOM
      1 O           6.4691   -0.1220    1.6292 O.2     1  UNL11      -0.1300
      2 N           6.3552   -1.1875    2.2499 N.4     1  UNL11       0.0062
      3 O           7.4718   -1.8571    2.6659 O.2     1  UNL11      -0.3961
      4 C           5.0564   -1.6873    2.5136 C.ar    1  UNL11       0.1278
      5 C           4.8738   -2.8700    3.2198 C.ar    1  UNL11       0.0039
      6 C           3.5811   -3.3186    3.4527 C.ar    1  UNL11       0.1290
      7 F           3.3665   -4.4825    4.1465 F       1  UNL11      -0.2053
      8 C           2.4781   -2.6269    3.0050 C.ar    1  UNL11       0.0161
      9 C           2.6374   -1.4566    2.3057 C.ar    1  UNL11       0.1368
     10 O           1.5956   -0.7027    1.8224 O.3     1  UNL11      -0.4235
     11 C           0.3722   -1.1602    1.4311 C.ar    1  UNL11       0.3239
     12 N           0.1357   -2.4887    1.5182 N.ar    1  UNL11      -0.2030
     13 C          -1.0275   -3.0246    1.1594 C.ar    1  UNL11       0.0350
     14 C          -2.0390   -2.1994    0.6781 C.ar    1  UNL11      -0.0173
     15 C          -1.8199   -0.8540    0.5823 C.ar    1  UNL11       0.0778
     16 C          -2.8545    0.0552    0.0812 C.ar    1  UNL11       0.0006
     17 C          -2.5618    1.2147   -0.5871 C.ar    1  UNL11      -0.0526
     18 C          -3.5592    2.0715   -1.0590 C.ar    1  UNL11      -0.0611
     19 C          -4.8697    1.7544   -0.8538 C.ar    1  UNL11      -0.0617
     20 C          -5.2085    0.5962   -0.1853 C.ar    1  UNL11      -0.0611
     21 C          -4.1984   -0.2260    0.2664 C.ar    1  UNL11      -0.0526
     22 N          -0.6160   -0.3771    0.9638 N.ar    1  UNL11      -0.1946
     23 C           3.9354   -1.0197    2.0800 C.ar    1  UNL11       0.0110
     24 H           5.7400   -3.4097    3.5691 H       1  UNL11       0.0669
     25 H           1.4761   -2.9803    3.1889 H       1  UNL11       0.0683
     26 H          -1.1912   -4.0845    1.2381 H       1  UNL11       0.0832
     27 H          -2.9479   -2.6709    0.4047 H       1  UNL11       0.0654
     28 H          -1.5587    1.5169   -0.7783 H       1  UNL11       0.0624
     29 H          -3.2838    2.9814   -1.5842 H       1  UNL11       0.0618
     30 H          -5.6499    2.4256   -1.2232 H       1  UNL11       0.0618
     31 H          -6.2660    0.3401   -0.0196 H       1  UNL11       0.0618
     32 H          -4.4911   -1.1322    0.7900 H       1  UNL11       0.0624
     33 H           4.1043   -0.0905    1.5259 H       1  UNL11       0.0677
     34 H           8.3223   -1.5097    2.4815 H       1  UNL11       0.3292
@<TRIPOS>BOND
     1     1     2    2
     2     2     3    1
     3     2     4    1
     4     4     5   ar
     5     5     6   ar
     6     5    24    1
     7     6     7    1
     8     6     8   ar
     9     8     9   ar
    10     8    25    1
    11     9    10    1
    12     9    23   ar
    13    10    11    1
    14    11    12   ar
    15    12    13   ar
    16    13    14   ar
    17    13    26    1
    18    14    15   ar
    19    14    27    1
    20    15    16    1
    21    15    22   ar
    22    16    17   ar
    23    17    18   ar
    24    17    28    1
    25    18    19   ar
    26    18    29    1
    27    19    20   ar
    28    19    30    1
    29    20    21   ar
    30    20    31    1
    31    21    16   ar
    32    21    32    1
    33    22    11   ar
    34    23     4   ar
    35    23    33    1
    36     3    34    1
@<TRIPOS>MOLECULE
*****
 34 36 0 0 0
SMALL
GASTEIGER

@<TRIPOS>ATOM
      1 O          -1.0352    2.3655    4.6136 O.2     1  UNL11      -0.1300
      2 N           0.0282    2.9843    4.4720 N.4     1  UNL11       0.0062
      3 O           0.1826    4.2149    5.0465 O.2     1  UNL11      -0.3961
      4 C           1.0652    2.3923    3.7101 C.ar    1  UNL11       0.1278
      5 C           2.2829    3.0380    3.5344 C.ar    1  UNL11       0.0039
      6 C           3.2677    2.4169    2.7790 C.ar    1  UNL11       0.1290
      7 F           4.4810    3.0276    2.5863 F       1  UNL11      -0.2053
      8 C           3.0726    1.1828    2.2007 C.ar    1  UNL11       0.0161
      9 C           1.8768    0.5288    2.3625 C.ar    1  UNL11       0.1368
     10 O           1.5956   -0.7027    1.8224 O.3     1  UNL11      -0.4235
     11 C           0.3722   -1.1602    1.4311 C.ar    1  UNL11       0.3239
     12 N           0.1357   -2.4887    1.5182 N.ar    1  UNL11      -0.2030
     13 C          -1.0275   -3.0246    1.1594 C.ar    1  UNL11       0.0350
     14 C          -2.0390   -2.1994    0.6781 C.ar    1  UNL11      -0.0173
     15 C          -1.8199   -0.8540    0.5823 C.ar    1  UNL11       0.0778
     16 C          -2.8545    0.0552    0.0812 C.ar    1  UNL11       0.0006
     17 C          -2.6596    1.4060   -0.0381 C.ar    1  UNL11      -0.0526
     18 C          -3.6556    2.2601   -0.5176 C.ar    1  UNL11      -0.0611
     19 C          -4.8647    1.7447   -0.8816 C.ar    1  UNL11      -0.0617
     20 C          -5.1030    0.3899   -0.7773 C.ar    1  UNL11      -0.0611
     21 C          -4.0974   -0.4234   -0.3002 C.ar    1  UNL11      -0.0526
     22 N          -0.6160   -0.3771    0.9638 N.ar    1  UNL11      -0.1946
     23 C           0.9009    1.1614    3.1202 C.ar    1  UNL11       0.0110
     24 H           2.4326    4.0048    3.9888 H       1  UNL11       0.0669
     25 H           3.8415    0.7051    1.6147 H       1  UNL11       0.0683
     26 H          -1.1912   -4.0845    1.2381 H       1  UNL11       0.0832
     27 H          -2.9479   -2.6709    0.4047 H       1  UNL11       0.0654
     28 H          -1.7382    1.8680    0.2294 H       1  UNL11       0.0624
     29 H          -3.4599    3.3255   -0.5965 H       1  UNL11       0.0618
     30 H          -5.6440    2.4139   -1.2566 H       1  UNL11       0.0618
     31 H          -6.0787   -0.0262   -1.0710 H       1  UNL11       0.0618
     32 H          -4.3098   -1.4867   -0.2275 H       1  UNL11       0.0624
     33 H          -0.0667    0.6721    3.2725 H       1  UNL11       0.0677
     34 H          -0.5155    4.5893    5.5469 H       1  UNL11       0.3292
@<TRIPOS>BOND
     1     1     2    2
     2     2     3    1
     3     2     4    1
     4     4     5   ar
     5     5     6   ar
     6     5    24    1
     7     6     7    1
     8     6     8   ar
     9     8     9   ar
    10     8    25    1
    11     9    10    1
    12     9    23   ar
    13    10    11    1
    14    11    12   ar
    15    12    13   ar
    16    13    14   ar
    17    13    26    1
    18    14    15   ar
    19    14    27    1
    20    15    16    1
    21    15    22   ar
    22    16    17   ar
    23    17    18   ar
    24    17    28    1
    25    18    19   ar
    26    18    29    1
    27    19    20   ar
    28    19    30    1
    29    20    21   ar
    30    20    31    1
    31    21    16   ar
    32    21    32    1
    33    22    11   ar
    34    23     4   ar
    35    23    33    1
    36     3    34    1
@<TRIPOS>MOLECULE
*****
 34 36 0 0 0
SMALL
GASTEIGER

@<TRIPOS>ATOM
      1 O           6.4818    1.9675    0.0372 O.2     1  UNL11      -0.1300
      2 N           5.8345    1.3597    0.9006 N.4     1  UNL11       0.0062
      3 O           6.4876    0.6433    1.8640 O.2     1  UNL11      -0.3961
      4 C           4.4200    1.4253    0.8641 C.ar    1  UNL11       0.1278
      5 C           3.7677    2.5404    0.3524 C.ar    1  UNL11       0.0039
      6 C           2.3799    2.5570    0.3386 C.ar    1  UNL11       0.1290
      7 F           1.7054    3.6428   -0.1597 F       1  UNL11      -0.2053
      8 C           1.6338    1.5032    0.8161 C.ar    1  UNL11       0.0161
      9 C           2.2593    0.3927    1.3256 C.ar    1  UNL11       0.1368
     10 O           1.5956   -0.7027    1.8224 O.3     1  UNL11      -0.4235
     11 C           0.3722   -1.1602    1.4311 C.ar    1  UNL11       0.3239
     12 N           0.1357   -2.4887    1.5182 N.ar    1  UNL11      -0.2030
     13 C          -1.0275   -3.0246    1.1594 C.ar    1  UNL11       0.0350
     14 C          -2.0390   -2.1994    0.6781 C.ar    1  UNL11      -0.0173
     15 C          -1.8199   -0.8540    0.5823 C.ar    1  UNL11       0.0778
     16 C          -2.8545    0.0552    0.0812 C.ar    1  UNL11       0.0006
     17 C          -4.1938   -0.1917    0.2304 C.ar    1  UNL11      -0.0526
     18 C          -5.1684    0.6846   -0.2528 C.ar    1  UNL11      -0.0611
     19 C          -4.7870    1.8256   -0.8953 C.ar    1  UNL11      -0.0617
     20 C          -3.4487    2.1127   -1.0670 C.ar    1  UNL11      -0.0611
     21 C          -2.5141    1.2256   -0.5774 C.ar    1  UNL11      -0.0526
     22 N          -0.6160   -0.3771    0.9638 N.ar    1  UNL11      -0.1946
     23 C           3.6473    0.3894    1.3333 C.ar    1  UNL11       0.0110
     24 H           4.3551    3.3645   -0.0209 H       1  UNL11       0.0669
     25 H           0.5557    1.5217    0.8029 H       1  UNL11       0.0683
     26 H          -1.1912   -4.0845    1.2381 H       1  UNL11       0.0832
     27 H          -2.9479   -2.6709    0.4047 H       1  UNL11       0.0654
     28 H          -4.5542   -1.0646    0.7225 H       1  UNL11       0.0624
     29 H          -6.2199    0.4510   -0.1134 H       1  UNL11       0.0618
     30 H          -5.5506    2.5110   -1.2734 H       1  UNL11       0.0618
     31 H          -3.1407    3.0335   -1.5855 H       1  UNL11       0.0618
     32 H          -1.4666    1.4743   -0.7253 H       1  UNL11       0.0624
     33 H           4.1835   -0.4783    1.7315 H       1  UNL11       0.0677
     34 H           7.4241    0.6124    1.8709 H       1  UNL11       0.3292
@<TRIPOS>BOND
     1     1     2    2
     2     2     3    1
     3     2     4    1
     4     4     5   ar
     5     5     6   ar
     6     5    24    1
     7     6     7    1
     8     6     8   ar
     9     8     9   ar
    10     8    25    1
    11     9    10    1
    12     9    23   ar
    13    10    11    1
    14    11    12   ar
    15    12    13   ar
    16    13    14   ar
    17    13    26    1
    18    14    15   ar
    19    14    27    1
    20    15    16    1
    21    15    22   ar
    22    16    17   ar
    23    17    18   ar
    24    17    28    1
    25    18    19   ar
    26    18    29    1
    27    19    20   ar
    28    19    30    1
    29    20    21   ar
    30    20    31    1
    31    21    16   ar
    32    21    32    1
    33    22    11   ar
    34    23     4   ar
    35    23    33    1
    36     3    34    1
@<TRIPOS>MOLECULE
*****
 34 36 0 0 0
SMALL
GASTEIGER

@<TRIPOS>ATOM
      1 O           4.9013    1.2531    4.8839 O.2     1  UNL11      -0.1300
      2 N           4.9600    0.0489    5.1671 N.4     1  UNL11       0.0062
      3 O           5.8265   -0.3832    6.1318 O.2     1  UNL11      -0.3961
      4 C           4.1181   -0.8560    4.4752 C.ar    1  UNL11       0.1278
      5 C           4.1341   -2.2146    4.7664 C.ar    1  UNL11       0.0039
      6 C           3.2904   -3.0609    4.0606 C.ar    1  UNL11       0.1290
      7 F           3.2818   -4.4073    4.3237 F       1  UNL11      -0.2053
      8 C           2.4408   -2.5938    3.0831 C.ar    1  UNL11       0.0161
      9 C           2.4102   -1.2552    2.7808 C.ar    1  UNL11       0.1368
     10 O           1.5956   -0.7027    1.8224 O.3     1  UNL11      -0.4235
     11 C           0.3722   -1.1602    1.4311 C.ar    1  UNL11       0.3239
     12 N           0.1357   -2.4887    1.5182 N.ar    1  UNL11      -0.2030
     13 C          -1.0275   -3.0246    1.1594 C.ar    1  UNL11       0.0350
     14 C          -2.0390   -2.1994    0.6781 C.ar    1  UNL11      -0.0173
     15 C          -1.8199   -0.8540    0.5823 C.ar    1  UNL11       0.0778
     16 C          -2.8545    0.0552    0.0812 C.ar    1  UNL11       0.0006
     17 C          -2.5618    1.2147   -0.5871 C.ar    1  UNL11      -0.0526
     18 C          -3.5592    2.0715   -1.0590 C.ar    1  UNL11      -0.0611
     19 C          -4.8697    1.7544   -0.8538 C.ar    1  UNL11      -0.0617
     20 C          -5.2085    0.5962   -0.1853 C.ar    1  UNL11      -0.0611
     21 C          -4.1984   -0.2260    0.2664 C.ar    1  UNL11      -0.0526
     22 N          -0.6160   -0.3771    0.9638 N.ar    1  UNL11      -0.1946
     23 C           3.2590   -0.4203    3.4942 C.ar    1  UNL11       0.0110
     24 H           4.8008   -2.5774    5.5327 H       1  UNL11       0.0669
     25 H           1.7875   -3.2562    2.5379 H       1  UNL11       0.0683
     26 H          -1.1912   -4.0845    1.2381 H       1  UNL11       0.0832
     27 H          -2.9479   -2.6709    0.4047 H       1  UNL11       0.0654
     28 H          -1.5587    1.5169   -0.7783 H       1  UNL11       0.0624
     29 H          -3.2838    2.9814   -1.5842 H       1  UNL11       0.0618
     30 H          -5.6499    2.4256   -1.2232 H       1  UNL11       0.0618
     31 H          -6.2660    0.3401   -0.0196 H       1  UNL11       0.0618
     32 H          -4.4911   -1.1322    0.7900 H       1  UNL11       0.0624
     33 H           3.2641    0.6539    3.2824 H       1  UNL11       0.0677
     34 H           6.3752    0.2314    6.5781 H       1  UNL11       0.3292
@<TRIPOS>BOND
     1     1     2    2
     2     2     3    1
     3     2     4    1
     4     4     5   ar
     5     5     6   ar
     6     5    24    1
     7     6     7    1
     8     6     8   ar
     9     8     9   ar
    10     8    25    1
    11     9    10    1
    12     9    23   ar
    13    10    11    1
    14    11    12   ar
    15    12    13   ar
    16    13    14   ar
    17    13    26    1
    18    14    15   ar
    19    14    27    1
    20    15    16    1
    21    15    22   ar
    22    16    17   ar
    23    17    18   ar
    24    17    28    1
    25    18    19   ar
    26    18    29    1
    27    19    20   ar
    28    19    30    1
    29    20    21   ar
    30    20    31    1
    31    21    16   ar
    32    21    32    1
    33    22    11   ar
    34    23     4   ar
    35    23    33    1
    36     3    34    1
@<TRIPOS>MOLECULE
*****
 34 36 0 0 0
SMALL
GASTEIGER

@<TRIPOS>ATOM
      1 O           5.3573    1.0630    4.5776 O.2     1  UNL11      -0.1300
      2 N           4.9600    0.0489    5.1671 N.4     1  UNL11       0.0062
      3 O           5.3360   -0.1788    6.4614 O.2     1  UNL11      -0.3961
      4 C           4.1181   -0.8560    4.4752 C.ar    1  UNL11       0.1278
      5 C           4.1341   -2.2146    4.7664 C.ar    1  UNL11       0.0039
      6 C           3.2904   -3.0609    4.0606 C.ar    1  UNL11       0.1290
      7 F           3.2818   -4.4073    4.3237 F       1  UNL11      -0.2053
      8 C           2.4408   -2.5938    3.0831 C.ar    1  UNL11       0.0161
      9 C           2.4102   -1.2552    2.7808 C.ar    1  UNL11       0.1368
     10 O           1.5956   -0.7027    1.8224 O.3     1  UNL11      -0.4235
     11 C           0.3722   -1.1602    1.4311 C.ar    1  UNL11       0.3239
     12 N           0.1357   -2.4887    1.5182 N.ar    1  UNL11      -0.2030
     13 C          -1.0275   -3.0246    1.1594 C.ar    1  UNL11       0.0350
     14 C          -2.0390   -2.1994    0.6781 C.ar    1  UNL11      -0.0173
     15 C          -1.8199   -0.8540    0.5823 C.ar    1  UNL11       0.0778
     16 C          -2.8545    0.0552    0.0812 C.ar    1  UNL11       0.0006
     17 C          -3.8014   -0.3301   -0.8308 C.ar    1  UNL11      -0.0526
     18 C          -4.7815    0.5481   -1.2992 C.ar    1  UNL11      -0.0611
     19 C          -4.8069    1.8326   -0.8415 C.ar    1  UNL11      -0.0617
     20 C          -3.8717    2.2620    0.0773 C.ar    1  UNL11      -0.0611
     21 C          -2.9190    1.3684    0.5179 C.ar    1  UNL11      -0.0526
     22 N          -0.6160   -0.3771    0.9638 N.ar    1  UNL11      -0.1946
     23 C           3.2590   -0.4203    3.4942 C.ar    1  UNL11       0.0110
     24 H           4.8008   -2.5774    5.5327 H       1  UNL11       0.0669
     25 H           1.7875   -3.2562    2.5379 H       1  UNL11       0.0683
     26 H          -1.1912   -4.0845    1.2381 H       1  UNL11       0.0832
     27 H          -2.9479   -2.6709    0.4047 H       1  UNL11       0.0654
     28 H          -3.8341   -1.3187   -1.2254 H       1  UNL11       0.0624
     29 H          -5.5139    0.2020   -2.0226 H       1  UNL11       0.0618
     30 H          -5.5743    2.5196   -1.2088 H       1  UNL11       0.0618
     31 H          -3.8921    3.2986    0.4468 H       1  UNL11       0.0618
     32 H          -2.1937    1.7308    1.2414 H       1  UNL11       0.0624
     33 H           3.2641    0.6539    3.2824 H       1  UNL11       0.0677
     34 H           5.8936    0.4321    6.9016 H       1  UNL11       0.3292
@<TRIPOS>BOND
     1     1     2    2
     2     2     3    1
     3     2     4    1
     4     4     5   ar
     5     5     6   ar
     6     5    24    1
     7     6     7    1
     8     6     8   ar
     9     8     9   ar
    10     8    25    1
    11     9    10    1
    12     9    23   ar
    13    10    11    1
    14    11    12   ar
    15    12    13   ar
    16    13    14   ar
    17    13    26    1
    18    14    15   ar
    19    14    27    1
    20    15    16    1
    21    15    22   ar
    22    16    17   ar
    23    17    18   ar
    24    17    28    1
    25    18    19   ar
    26    18    29    1
    27    19    20   ar
    28    19    30    1
    29    20    21   ar
    30    20    31    1
    31    21    16   ar
    32    21    32    1
    33    22    11   ar
    34    23     4   ar
    35    23    33    1
    36     3    34    1
@<TRIPOS>MOLECULE
*****
 34 36 0 0 0
SMALL
GASTEIGER

@<TRIPOS>ATOM
      1 O           5.3573    1.0630    4.5776 O.2     1  UNL11      -0.1300
      2 N           4.9600    0.0489    5.1671 N.4     1  UNL11       0.0062
      3 O           5.3360   -0.1788    6.4614 O.2     1  UNL11      -0.3961
      4 C           4.1181   -0.8560    4.4752 C.ar    1  UNL11       0.1278
      5 C           4.1341   -2.2146    4.7664 C.ar    1  UNL11       0.0039
      6 C           3.2904   -3.0609    4.0606 C.ar    1  UNL11       0.1290
      7 F           3.2818   -4.4073    4.3237 F       1  UNL11      -0.2053
      8 C           2.4408   -2.5938    3.0831 C.ar    1  UNL11       0.0161
      9 C           2.4102   -1.2552    2.7808 C.ar    1  UNL11       0.1368
     10 O           1.5956   -0.7027    1.8224 O.3     1  UNL11      -0.4235
     11 C           0.3722   -1.1602    1.4311 C.ar    1  UNL11       0.3239
     12 N           0.1357   -2.4887    1.5182 N.ar    1  UNL11      -0.2030
     13 C          -1.0275   -3.0246    1.1594 C.ar    1  UNL11       0.0350
     14 C          -2.0390   -2.1994    0.6781 C.ar    1  UNL11      -0.0173
     15 C          -1.8199   -0.8540    0.5823 C.ar    1  UNL11       0.0778
     16 C          -2.8545    0.0552    0.0812 C.ar    1  UNL11       0.0006
     17 C          -2.9627    1.3561    0.4969 C.ar    1  UNL11      -0.0526
     18 C          -3.9544    2.2109    0.0101 C.ar    1  UNL11      -0.0611
     19 C          -4.8494    1.7472   -0.9087 C.ar    1  UNL11      -0.0617
     20 C          -4.7763    0.4437   -1.3543 C.ar    1  UNL11      -0.0611
     21 C          -3.7847   -0.3719   -0.8524 C.ar    1  UNL11      -0.0526
     22 N          -0.6160   -0.3771    0.9638 N.ar    1  UNL11      -0.1946
     23 C           3.2590   -0.4203    3.4942 C.ar    1  UNL11       0.0110
     24 H           4.8008   -2.5774    5.5327 H       1  UNL11       0.0669
     25 H           1.7875   -3.2562    2.5379 H       1  UNL11       0.0683
     26 H          -1.1912   -4.0845    1.2381 H       1  UNL11       0.0832
     27 H          -2.9479   -2.6709    0.4047 H       1  UNL11       0.0654
     28 H          -2.2944    1.7765    1.2116 H       1  UNL11       0.0624
     29 H          -4.0050    3.2357    0.3662 H       1  UNL11       0.0618
     30 H          -5.6256    2.4169   -1.2892 H       1  UNL11       0.0618
     31 H          -5.4985    0.0693   -2.0958 H       1  UNL11       0.0618
     32 H          -3.7482   -1.3942   -1.2192 H       1  UNL11       0.0624
     33 H           3.2641    0.6539    3.2824 H       1  UNL11       0.0677
     34 H           5.8936    0.4321    6.9016 H       1  UNL11       0.3292
@<TRIPOS>BOND
     1     1     2    2
     2     2     3    1
     3     2     4    1
     4     4     5   ar
     5     5     6   ar
     6     5    24    1
     7     6     7    1
     8     6     8   ar
     9     8     9   ar
    10     8    25    1
    11     9    10    1
    12     9    23   ar
    13    10    11    1
    14    11    12   ar
    15    12    13   ar
    16    13    14   ar
    17    13    26    1
    18    14    15   ar
    19    14    27    1
    20    15    16    1
    21    15    22   ar
    22    16    17   ar
    23    17    18   ar
    24    17    28    1
    25    18    19   ar
    26    18    29    1
    27    19    20   ar
    28    19    30    1
    29    20    21   ar
    30    20    31    1
    31    21    16   ar
    32    21    32    1
    33    22    11   ar
    34    23     4   ar
    35    23    33    1
    36     3    34    1
@<TRIPOS>MOLECULE
*****
 34 36 0 0 0
SMALL
GASTEIGER

@<TRIPOS>ATOM
      1 O           1.8739   -4.6290    4.8828 O.2     1  UNL11      -0.1300
      2 N           2.9414   -4.6197    4.2550 N.4     1  UNL11       0.0062
      3 O           3.7445   -5.7257    4.2590 O.2     1  UNL11      -0.3961
      4 C           3.3034   -3.4498    3.5431 C.ar    1  UNL11       0.1278
      5 C           4.6374   -3.1076    3.3587 C.ar    1  UNL11       0.0039
      6 C           4.9411   -1.9511    2.6541 C.ar    1  UNL11       0.1290
      7 F           6.2481   -1.5849    2.4546 F       1  UNL11      -0.2053
      8 C           3.9610   -1.1359    2.1343 C.ar    1  UNL11       0.0161
      9 C           2.6374   -1.4566    2.3057 C.ar    1  UNL11       0.1368
     10 O           1.5956   -0.7027    1.8224 O.3     1  UNL11      -0.4235
     11 C           0.3722   -1.1602    1.4311 C.ar    1  UNL11       0.3239
     12 N           0.1357   -2.4887    1.5182 N.ar    1  UNL11      -0.2030
     13 C          -1.0275   -3.0246    1.1594 C.ar    1  UNL11       0.0350
     14 C          -2.0390   -2.1994    0.6781 C.ar    1  UNL11      -0.0173
     15 C          -1.8199   -0.8540    0.5823 C.ar    1  UNL11       0.0778
     16 C          -2.8545    0.0552    0.0812 C.ar    1  UNL11       0.0006
     17 C          -4.1938   -0.1917    0.2304 C.ar    1  UNL11      -0.0526
     18 C          -5.1684    0.6846   -0.2528 C.ar    1  UNL11      -0.0611
     19 C          -4.7870    1.8256   -0.8953 C.ar    1  UNL11      -0.0617
     20 C          -3.4487    2.1127   -1.0670 C.ar    1  UNL11      -0.0611
     21 C          -2.5141    1.2256   -0.5774 C.ar    1  UNL11      -0.0526
     22 N          -0.6160   -0.3771    0.9638 N.ar    1  UNL11      -0.1946
     23 C           2.3480   -2.6158    3.0122 C.ar    1  UNL11       0.0110
     24 H           5.4030   -3.7483    3.7672 H       1  UNL11       0.0669
     25 H           4.2030   -0.2384    1.5877 H       1  UNL11       0.0683
     26 H          -1.1912   -4.0845    1.2381 H       1  UNL11       0.0832
     27 H          -2.9479   -2.6709    0.4047 H       1  UNL11       0.0654
     28 H          -4.5542   -1.0646    0.7225 H       1  UNL11       0.0624
     29 H          -6.2199    0.4510   -0.1134 H       1  UNL11       0.0618
     30 H          -5.5506    2.5110   -1.2734 H       1  UNL11       0.0618
     31 H          -3.1407    3.0335   -1.5855 H       1  UNL11       0.0618
     32 H          -1.4666    1.4743   -0.7253 H       1  UNL11       0.0624
     33 H           1.3041   -2.9060    3.1703 H       1  UNL11       0.0677
     34 H           3.4871   -6.4899    4.7362 H       1  UNL11       0.3292
@<TRIPOS>BOND
     1     1     2    2
     2     2     3    1
     3     2     4    1
     4     4     5   ar
     5     5     6   ar
     6     5    24    1
     7     6     7    1
     8     6     8   ar
     9     8     9   ar
    10     8    25    1
    11     9    10    1
    12     9    23   ar
    13    10    11    1
    14    11    12   ar
    15    12    13   ar
    16    13    14   ar
    17    13    26    1
    18    14    15   ar
    19    14    27    1
    20    15    16    1
    21    15    22   ar
    22    16    17   ar
    23    17    18   ar
    24    17    28    1
    25    18    19   ar
    26    18    29    1
    27    19    20   ar
    28    19    30    1
    29    20    21   ar
    30    20    31    1
    31    21    16   ar
    32    21    32    1
    33    22    11   ar
    34    23     4   ar
    35    23    33    1
    36     3    34    1
@<TRIPOS>MOLECULE
*****
 34 36 0 0 0
SMALL
GASTEIGER

@<TRIPOS>ATOM
      1 O           2.6771   -5.4832    2.1433 O.2     1  UNL11      -0.1300
      2 N           3.7945   -4.9695    1.9969 N.4     1  UNL11       0.0062
      3 O           4.9101   -5.7590    1.9735 O.2     1  UNL11      -0.3961
      4 C           3.8851   -3.5630    1.8566 C.ar    1  UNL11       0.1278
      5 C           5.1132   -2.9390    1.6742 C.ar    1  UNL11       0.0039
      6 C           5.1499   -1.5579    1.5419 C.ar    1  UNL11       0.1290
      7 F           6.3461   -0.9112    1.3606 F       1  UNL11      -0.2053
      8 C           4.0073   -0.7911    1.5863 C.ar    1  UNL11       0.0161
      9 C           2.7846   -1.3885    1.7657 C.ar    1  UNL11       0.1368
     10 O           1.5956   -0.7027    1.8224 O.3     1  UNL11      -0.4235
     11 C           0.3722   -1.1602    1.4311 C.ar    1  UNL11       0.3239
     12 N           0.1357   -2.4887    1.5182 N.ar    1  UNL11      -0.2030
     13 C          -1.0275   -3.0246    1.1594 C.ar    1  UNL11       0.0350
     14 C          -2.0390   -2.1994    0.6781 C.ar    1  UNL11      -0.0173
     15 C          -1.8199   -0.8540    0.5823 C.ar    1  UNL11       0.0778
     16 C          -2.8545    0.0552    0.0812 C.ar    1  UNL11       0.0006
     17 C          -4.0909   -0.3778   -0.3195 C.ar    1  UNL11      -0.0526
     18 C          -5.0670    0.5011   -0.7950 C.ar    1  UNL11      -0.0611
     19 C          -4.7922    1.8350   -0.8674 C.ar    1  UNL11      -0.0617
     20 C          -3.5595    2.3134   -0.4741 C.ar    1  UNL11      -0.0611
     21 C          -2.6202    1.4176   -0.0098 C.ar    1  UNL11      -0.0526
     22 N          -0.6160   -0.3771    0.9638 N.ar    1  UNL11      -0.1946
     23 C           2.7626   -2.7701    1.8966 C.ar    1  UNL11       0.0110
     24 H           6.0065   -3.5426    1.6399 H       1  UNL11       0.0669
     25 H           4.0420    0.2817    1.4830 H       1  UNL11       0.0683
     26 H          -1.1912   -4.0845    1.2381 H       1  UNL11       0.0832
     27 H          -2.9479   -2.6709    0.4047 H       1  UNL11       0.0654
     28 H          -4.3656   -1.4062   -0.2868 H       1  UNL11       0.0624
     29 H          -6.0349    0.1162   -1.1027 H       1  UNL11       0.0618
     30 H          -5.5567    2.5224   -1.2399 H       1  UNL11       0.0618
     31 H          -3.3376    3.3899   -0.5324 H       1  UNL11       0.0618
     32 H          -1.6571    1.8192    0.2938 H       1  UNL11       0.0624
     33 H           1.8066   -3.2841    2.0413 H       1  UNL11       0.0677
     34 H           4.8289   -6.6876    2.0680 H       1  UNL11       0.3292
@<TRIPOS>BOND
     1     1     2    2
     2     2     3    1
     3     2     4    1
     4     4     5   ar
     5     5     6   ar
     6     5    24    1
     7     6     7    1
     8     6     8   ar
     9     8     9   ar
    10     8    25    1
    11     9    10    1
    12     9    23   ar
    13    10    11    1
    14    11    12   ar
    15    12    13   ar
    16    13    14   ar
    17    13    26    1
    18    14    15   ar
    19    14    27    1
    20    15    16    1
    21    15    22   ar
    22    16    17   ar
    23    17    18   ar
    24    17    28    1
    25    18    19   ar
    26    18    29    1
    27    19    20   ar
    28    19    30    1
    29    20    21   ar
    30    20    31    1
    31    21    16   ar
    32    21    32    1
    33    22    11   ar
    34    23     4   ar
    35    23    33    1
    36     3    34    1
@<TRIPOS>MOLECULE
*****
 34 36 0 0 0
SMALL
GASTEIGER

@<TRIPOS>ATOM
      1 O           1.7896    4.6817   -0.5990 O.2     1  UNL11      -0.1300
      2 N           1.2470    3.6683   -0.1383 N.4     1  UNL11       0.0062
      3 O          -0.1166    3.5870   -0.0903 O.2     1  UNL11      -0.3961
      4 C           2.0643    2.6108    0.3308 C.ar    1  UNL11       0.1278
      5 C           3.4501    2.7002    0.2804 C.ar    1  UNL11       0.0039
      6 C           4.2076    1.6372    0.7522 C.ar    1  UNL11       0.1290
      7 F           5.5778    1.6938    0.7166 F       1  UNL11      -0.2053
      8 C           3.6265    0.5003    1.2671 C.ar    1  UNL11       0.0161
      9 C           2.2593    0.3927    1.3256 C.ar    1  UNL11       0.1368
     10 O           1.5956   -0.7027    1.8224 O.3     1  UNL11      -0.4235
     11 C           0.3722   -1.1602    1.4311 C.ar    1  UNL11       0.3239
     12 N           0.1357   -2.4887    1.5182 N.ar    1  UNL11      -0.2030
     13 C          -1.0275   -3.0246    1.1594 C.ar    1  UNL11       0.0350
     14 C          -2.0390   -2.1994    0.6781 C.ar    1  UNL11      -0.0173
     15 C          -1.8199   -0.8540    0.5823 C.ar    1  UNL11       0.0778
     16 C          -2.8545    0.0552    0.0812 C.ar    1  UNL11       0.0006
     17 C          -3.8014   -0.3301   -0.8308 C.ar    1  UNL11      -0.0526
     18 C          -4.7815    0.5481   -1.2992 C.ar    1  UNL11      -0.0611
     19 C          -4.8069    1.8326   -0.8415 C.ar    1  UNL11      -0.0617
     20 C          -3.8717    2.2620    0.0773 C.ar    1  UNL11      -0.0611
     21 C          -2.9190    1.3684    0.5179 C.ar    1  UNL11      -0.0526
     22 N          -0.6160   -0.3771    0.9638 N.ar    1  UNL11      -0.1946
     23 C           1.5141    1.4630    0.8504 C.ar    1  UNL11       0.0110
     24 H           3.9023    3.5923   -0.1237 H       1  UNL11       0.0669
     25 H           4.2201   -0.3225    1.6322 H       1  UNL11       0.0683
     26 H          -1.1912   -4.0845    1.2381 H       1  UNL11       0.0832
     27 H          -2.9479   -2.6709    0.4047 H       1  UNL11       0.0654
     28 H          -3.8341   -1.3187   -1.2254 H       1  UNL11       0.0624
     29 H          -5.5139    0.2020   -2.0226 H       1  UNL11       0.0618
     30 H          -5.5743    2.5196   -1.2088 H       1  UNL11       0.0618
     31 H          -3.8921    3.2986    0.4468 H       1  UNL11       0.0618
     32 H          -2.1937    1.7308    1.2414 H       1  UNL11       0.0624
     33 H           0.4206    1.4155    0.8798 H       1  UNL11       0.0677
     34 H          -0.6397    4.2975   -0.4057 H       1  UNL11       0.3292
@<TRIPOS>BOND
     1     1     2    2
     2     2     3    1
     3     2     4    1
     4     4     5   ar
     5     5     6   ar
     6     5    24    1
     7     6     7    1
     8     6     8   ar
     9     8     9   ar
    10     8    25    1
    11     9    10    1
    12     9    23   ar
    13    10    11    1
    14    11    12   ar
    15    12    13   ar
    16    13    14   ar
    17    13    26    1
    18    14    15   ar
    19    14    27    1
    20    15    16    1
    21    15    22   ar
    22    16    17   ar
    23    17    18   ar
    24    17    28    1
    25    18    19   ar
    26    18    29    1
    27    19    20   ar
    28    19    30    1
    29    20    21   ar
    30    20    31    1
    31    21    16   ar
    32    21    32    1
    33    22    11   ar
    34    23     4   ar
    35    23    33    1
    36     3    34    1
@<TRIPOS>MOLECULE
*****
 34 36 0 0 0
SMALL
GASTEIGER

@<TRIPOS>ATOM
      1 O           0.6489    5.0889    2.4961 O.2     1  UNL11      -0.1300
      2 N           0.4423    3.9548    2.0436 N.4     1  UNL11       0.0062
      3 O          -0.5773    3.7500    1.1565 O.2     1  UNL11      -0.3961
      4 C           1.2777    2.8907    2.4631 C.ar    1  UNL11       0.1278
      5 C           2.3117    3.1052    3.3662 C.ar    1  UNL11       0.0039
      6 C           3.1029    2.0302    3.7465 C.ar    1  UNL11       0.1290
      7 F           4.1318    2.2083    4.6363 F       1  UNL11      -0.2053
      8 C           2.8929    0.7613    3.2555 C.ar    1  UNL11       0.0161
      9 C           1.8768    0.5288    2.3625 C.ar    1  UNL11       0.1368
     10 O           1.5956   -0.7027    1.8224 O.3     1  UNL11      -0.4235
     11 C           0.3722   -1.1602    1.4311 C.ar    1  UNL11       0.3239
     12 N           0.1357   -2.4887    1.5182 N.ar    1  UNL11      -0.2030
     13 C          -1.0275   -3.0246    1.1594 C.ar    1  UNL11       0.0350
     14 C          -2.0390   -2.1994    0.6781 C.ar    1  UNL11      -0.0173
     15 C          -1.8199   -0.8540    0.5823 C.ar    1  UNL11       0.0778
     16 C          -2.8545    0.0552    0.0812 C.ar    1  UNL11       0.0006
     17 C          -3.8014   -0.3301   -0.8308 C.ar    1  UNL11      -0.0526
     18 C          -4.7815    0.5481   -1.2992 C.ar    1  UNL11      -0.0611
     19 C          -4.8069    1.8326   -0.8415 C.ar    1  UNL11      -0.0617
     20 C          -3.8717    2.2620    0.0773 C.ar    1  UNL11      -0.0611
     21 C          -2.9190    1.3684    0.5179 C.ar    1  UNL11      -0.0526
     22 N          -0.6160   -0.3771    0.9638 N.ar    1  UNL11      -0.1946
     23 C           1.0934    1.6127    1.9909 C.ar    1  UNL11       0.0110
     24 H           2.4736    4.1006    3.7490 H       1  UNL11       0.0669
     25 H           3.5110   -0.0702    3.5545 H       1  UNL11       0.0683
     26 H          -1.1912   -4.0845    1.2381 H       1  UNL11       0.0832
     27 H          -2.9479   -2.6709    0.4047 H       1  UNL11       0.0654
     28 H          -3.8341   -1.3187   -1.2254 H       1  UNL11       0.0624
     29 H          -5.5139    0.2020   -2.0226 H       1  UNL11       0.0618
     30 H          -5.5743    2.5196   -1.2088 H       1  UNL11       0.0618
     31 H          -3.8921    3.2986    0.4468 H       1  UNL11       0.0618
     32 H          -2.1937    1.7308    1.2414 H       1  UNL11       0.0624
     33 H           0.2728    1.4681    1.2806 H       1  UNL11       0.0677
     34 H          -1.1188    4.4672    0.8914 H       1  UNL11       0.3292
@<TRIPOS>BOND
     1     1     2    2
     2     2     3    1
     3     2     4    1
     4     4     5   ar
     5     5     6   ar
     6     5    24    1
     7     6     7    1
     8     6     8   ar
     9     8     9   ar
    10     8    25    1
    11     9    10    1
    12     9    23   ar
    13    10    11    1
    14    11    12   ar
    15    12    13   ar
    16    13    14   ar
    17    13    26    1
    18    14    15   ar
    19    14    27    1
    20    15    16    1
    21    15    22   ar
    22    16    17   ar
    23    17    18   ar
    24    17    28    1
    25    18    19   ar
    26    18    29    1
    27    19    20   ar
    28    19    30    1
    29    20    21   ar
    30    20    31    1
    31    21    16   ar
    32    21    32    1
    33    22    11   ar
    34    23     4   ar
    35    23    33    1
    36     3    34    1
@<TRIPOS>MOLECULE
*****
 34 36 0 0 0
SMALL
GASTEIGER

@<TRIPOS>ATOM
      1 O           0.2236    4.0955    4.9827 O.2     1  UNL11      -0.1300
      2 N           0.0282    2.9843    4.4720 N.4     1  UNL11       0.0062
      3 O          -1.1714    2.3537    4.6496 O.2     1  UNL11      -0.3961
      4 C           1.0652    2.3923    3.7101 C.ar    1  UNL11       0.1278
      5 C           2.2829    3.0380    3.5344 C.ar    1  UNL11       0.0039
      6 C           3.2677    2.4169    2.7790 C.ar    1  UNL11       0.1290
      7 F           4.4810    3.0276    2.5863 F       1  UNL11      -0.2053
      8 C           3.0726    1.1828    2.2007 C.ar    1  UNL11       0.0161
      9 C           1.8768    0.5288    2.3625 C.ar    1  UNL11       0.1368
     10 O           1.5956   -0.7027    1.8224 O.3     1  UNL11      -0.4235
     11 C           0.3722   -1.1602    1.4311 C.ar    1  UNL11       0.3239
     12 N           0.1357   -2.4887    1.5182 N.ar    1  UNL11      -0.2030
     13 C          -1.0275   -3.0246    1.1594 C.ar    1  UNL11       0.0350
     14 C          -2.0390   -2.1994    0.6781 C.ar    1  UNL11      -0.0173
     15 C          -1.8199   -0.8540    0.5823 C.ar    1  UNL11       0.0778
     16 C          -2.8545    0.0552    0.0812 C.ar    1  UNL11       0.0006
     17 C          -3.8014   -0.3301   -0.8308 C.ar    1  UNL11      -0.0526
     18 C          -4.7815    0.5481   -1.2992 C.ar    1  UNL11      -0.0611
     19 C          -4.8069    1.8326   -0.8415 C.ar    1  UNL11      -0.0617
     20 C          -3.8717    2.2620    0.0773 C.ar    1  UNL11      -0.0611
     21 C          -2.9190    1.3684    0.5179 C.ar    1  UNL11      -0.0526
     22 N          -0.6160   -0.3771    0.9638 N.ar    1  UNL11      -0.1946
     23 C           0.9009    1.1614    3.1202 C.ar    1  UNL11       0.0110
     24 H           2.4326    4.0048    3.9888 H       1  UNL11       0.0669
     25 H           3.8415    0.7051    1.6147 H       1  UNL11       0.0683
     26 H          -1.1912   -4.0845    1.2381 H       1  UNL11       0.0832
     27 H          -2.9479   -2.6709    0.4047 H       1  UNL11       0.0654
     28 H          -3.8341   -1.3187   -1.2254 H       1  UNL11       0.0624
     29 H          -5.5139    0.2020   -2.0226 H       1  UNL11       0.0618
     30 H          -5.5743    2.5196   -1.2088 H       1  UNL11       0.0618
     31 H          -3.8921    3.2986    0.4468 H       1  UNL11       0.0618
     32 H          -2.1937    1.7308    1.2414 H       1  UNL11       0.0624
     33 H          -0.0667    0.6721    3.2725 H       1  UNL11       0.0677
     34 H          -1.8448    2.7622    5.1573 H       1  UNL11       0.3292
@<TRIPOS>BOND
     1     1     2    2
     2     2     3    1
     3     2     4    1
     4     4     5   ar
     5     5     6   ar
     6     5    24    1
     7     6     7    1
     8     6     8   ar
     9     8     9   ar
    10     8    25    1
    11     9    10    1
    12     9    23   ar
    13    10    11    1
    14    11    12   ar
    15    12    13   ar
    16    13    14   ar
    17    13    26    1
    18    14    15   ar
    19    14    27    1
    20    15    16    1
    21    15    22   ar
    22    16    17   ar
    23    17    18   ar
    24    17    28    1
    25    18    19   ar
    26    18    29    1
    27    19    20   ar
    28    19    30    1
    29    20    21   ar
    30    20    31    1
    31    21    16   ar
    32    21    32    1
    33    22    11   ar
    34    23     4   ar
    35    23    33    1
    36     3    34    1
@<TRIPOS>MOLECULE
*****
 34 36 0 0 0
SMALL
GASTEIGER

@<TRIPOS>ATOM
      1 O           0.2415    4.8973    2.8215 O.2     1  UNL11      -0.1300
      2 N           0.4423    3.9548    2.0436 N.4     1  UNL11       0.0062
      3 O          -0.1390    3.9561    0.8064 O.2     1  UNL11      -0.3961
      4 C           1.2777    2.8907    2.4631 C.ar    1  UNL11       0.1278
      5 C           2.3117    3.1052    3.3662 C.ar    1  UNL11       0.0039
      6 C           3.1029    2.0302    3.7465 C.ar    1  UNL11       0.1290
      7 F           4.1318    2.2083    4.6363 F       1  UNL11      -0.2053
      8 C           2.8929    0.7613    3.2555 C.ar    1  UNL11       0.0161
      9 C           1.8768    0.5288    2.3625 C.ar    1  UNL11       0.1368
     10 O           1.5956   -0.7027    1.8224 O.3     1  UNL11      -0.4235
     11 C           0.3722   -1.1602    1.4311 C.ar    1  UNL11       0.3239
     12 N           0.1357   -2.4887    1.5182 N.ar    1  UNL11      -0.2030
     13 C          -1.0275   -3.0246    1.1594 C.ar    1  UNL11       0.0350
     14 C          -2.0390   -2.1994    0.6781 C.ar    1  UNL11      -0.0173
     15 C          -1.8199   -0.8540    0.5823 C.ar    1  UNL11       0.0778
     16 C          -2.8545    0.0552    0.0812 C.ar    1  UNL11       0.0006
     17 C          -2.9627    1.3561    0.4969 C.ar    1  UNL11      -0.0526
     18 C          -3.9544    2.2109    0.0101 C.ar    1  UNL11      -0.0611
     19 C          -4.8494    1.7472   -0.9087 C.ar    1  UNL11      -0.0617
     20 C          -4.7763    0.4437   -1.3543 C.ar    1  UNL11      -0.0611
     21 C          -3.7847   -0.3719   -0.8524 C.ar    1  UNL11      -0.0526
     22 N          -0.6160   -0.3771    0.9638 N.ar    1  UNL11      -0.1946
     23 C           1.0934    1.6127    1.9909 C.ar    1  UNL11       0.0110
     24 H           2.4736    4.1006    3.7490 H       1  UNL11       0.0669
     25 H           3.5110   -0.0702    3.5545 H       1  UNL11       0.0683
     26 H          -1.1912   -4.0845    1.2381 H       1  UNL11       0.0832
     27 H          -2.9479   -2.6709    0.4047 H       1  UNL11       0.0654
     28 H          -2.2944    1.7765    1.2116 H       1  UNL11       0.0624
     29 H          -4.0050    3.2357    0.3662 H       1  UNL11       0.0618
     30 H          -5.6256    2.4169   -1.2892 H       1  UNL11       0.0618
     31 H          -5.4985    0.0693   -2.0958 H       1  UNL11       0.0618
     32 H          -3.7482   -1.3942   -1.2192 H       1  UNL11       0.0624
     33 H           0.2728    1.4681    1.2806 H       1  UNL11       0.0677
     34 H          -0.6885    4.6696    0.5478 H       1  UNL11       0.3292
@<TRIPOS>BOND
     1     1     2    2
     2     2     3    1
     3     2     4    1
     4     4     5   ar
     5     5     6   ar
     6     5    24    1
     7     6     7    1
     8     6     8   ar
     9     8     9   ar
    10     8    25    1
    11     9    10    1
    12     9    23   ar
    13    10    11    1
    14    11    12   ar
    15    12    13   ar
    16    13    14   ar
    17    13    26    1
    18    14    15   ar
    19    14    27    1
    20    15    16    1
    21    15    22   ar
    22    16    17   ar
    23    17    18   ar
    24    17    28    1
    25    18    19   ar
    26    18    29    1
    27    19    20   ar
    28    19    30    1
    29    20    21   ar
    30    20    31    1
    31    21    16   ar
    32    21    32    1
    33    22    11   ar
    34    23     4   ar
    35    23    33    1
    36     3    34    1
@<TRIPOS>MOLECULE
*****
 34 36 0 0 0
SMALL
GASTEIGER

@<TRIPOS>ATOM
      1 O           1.7896    4.6817   -0.5990 O.2     1  UNL11      -0.1300
      2 N           1.2470    3.6683   -0.1383 N.4     1  UNL11       0.0062
      3 O          -0.1166    3.5870   -0.0903 O.2     1  UNL11      -0.3961
      4 C           2.0643    2.6108    0.3308 C.ar    1  UNL11       0.1278
      5 C           3.4501    2.7002    0.2804 C.ar    1  UNL11       0.0039
      6 C           4.2076    1.6372    0.7522 C.ar    1  UNL11       0.1290
      7 F           5.5778    1.6938    0.7166 F       1  UNL11      -0.2053
      8 C           3.6265    0.5003    1.2671 C.ar    1  UNL11       0.0161
      9 C           2.2593    0.3927    1.3256 C.ar    1  UNL11       0.1368
     10 O           1.5956   -0.7027    1.8224 O.3     1  UNL11      -0.4235
     11 C           0.3722   -1.1602    1.4311 C.ar    1  UNL11       0.3239
     12 N           0.1357   -2.4887    1.5182 N.ar    1  UNL11      -0.2030
     13 C          -1.0275   -3.0246    1.1594 C.ar    1  UNL11       0.0350
     14 C          -2.0390   -2.1994    0.6781 C.ar    1  UNL11      -0.0173
     15 C          -1.8199   -0.8540    0.5823 C.ar    1  UNL11       0.0778
     16 C          -2.8545    0.0552    0.0812 C.ar    1  UNL11       0.0006
     17 C          -2.6596    1.4060   -0.0381 C.ar    1  UNL11      -0.0526
     18 C          -3.6556    2.2601   -0.5176 C.ar    1  UNL11      -0.0611
     19 C          -4.8647    1.7447   -0.8816 C.ar    1  UNL11      -0.0617
     20 C          -5.1030    0.3899   -0.7773 C.ar    1  UNL11      -0.0611
     21 C          -4.0974   -0.4234   -0.3002 C.ar    1  UNL11      -0.0526
     22 N          -0.6160   -0.3771    0.9638 N.ar    1  UNL11      -0.1946
     23 C           1.5141    1.4630    0.8504 C.ar    1  UNL11       0.0110
     24 H           3.9023    3.5923   -0.1237 H       1  UNL11       0.0669
     25 H           4.2201   -0.3225    1.6322 H       1  UNL11       0.0683
     26 H          -1.1912   -4.0845    1.2381 H       1  UNL11       0.0832
     27 H          -2.9479   -2.6709    0.4047 H       1  UNL11       0.0654
     28 H          -1.7382    1.8680    0.2294 H       1  UNL11       0.0624
     29 H          -3.4599    3.3255   -0.5965 H       1  UNL11       0.0618
     30 H          -5.6440    2.4139   -1.2566 H       1  UNL11       0.0618
     31 H          -6.0787   -0.0262   -1.0710 H       1  UNL11       0.0618
     32 H          -4.3098   -1.4867   -0.2275 H       1  UNL11       0.0624
     33 H           0.4206    1.4155    0.8798 H       1  UNL11       0.0677
     34 H          -0.6397    4.2975   -0.4057 H       1  UNL11       0.3292
@<TRIPOS>BOND
     1     1     2    2
     2     2     3    1
     3     2     4    1
     4     4     5   ar
     5     5     6   ar
     6     5    24    1
     7     6     7    1
     8     6     8   ar
     9     8     9   ar
    10     8    25    1
    11     9    10    1
    12     9    23   ar
    13    10    11    1
    14    11    12   ar
    15    12    13   ar
    16    13    14   ar
    17    13    26    1
    18    14    15   ar
    19    14    27    1
    20    15    16    1
    21    15    22   ar
    22    16    17   ar
    23    17    18   ar
    24    17    28    1
    25    18    19   ar
    26    18    29    1
    27    19    20   ar
    28    19    30    1
    29    20    21   ar
    30    20    31    1
    31    21    16   ar
    32    21    32    1
    33    22    11   ar
    34    23     4   ar
    35    23    33    1
    36     3    34    1
@<TRIPOS>MOLECULE
*****
 34 36 0 0 0
SMALL
GASTEIGER

@<TRIPOS>ATOM
      1 O          -0.7808    3.5528    2.4299 O.2     1  UNL11      -0.1300
      2 N           0.3864    3.9261    2.2508 N.4     1  UNL11       0.0062
      3 O           0.6842    5.2601    2.2565 O.2     1  UNL11      -0.3961
      4 C           1.3904    2.9488    2.0428 C.ar    1  UNL11       0.1278
      5 C           2.7174    3.3144    1.8529 C.ar    1  UNL11       0.0039
      6 C           3.6643    2.3196    1.6528 C.ar    1  UNL11       0.1290
      7 F           4.9829    2.6470    1.4622 F       1  UNL11      -0.2053
      8 C           3.3269    0.9850    1.6371 C.ar    1  UNL11       0.0161
      9 C           2.0215    0.6034    1.8227 C.ar    1  UNL11       0.1368
     10 O           1.5956   -0.7027    1.8224 O.3     1  UNL11      -0.4235
     11 C           0.3722   -1.1602    1.4311 C.ar    1  UNL11       0.3239
     12 N           0.1357   -2.4887    1.5182 N.ar    1  UNL11      -0.2030
     13 C          -1.0275   -3.0246    1.1594 C.ar    1  UNL11       0.0350
     14 C          -2.0390   -2.1994    0.6781 C.ar    1  UNL11      -0.0173
     15 C          -1.8199   -0.8540    0.5823 C.ar    1  UNL11       0.0778
     16 C          -2.8545    0.0552    0.0812 C.ar    1  UNL11       0.0006
     17 C          -4.1938   -0.1917    0.2304 C.ar    1  UNL11      -0.0526
     18 C          -5.1684    0.6846   -0.2528 C.ar    1  UNL11      -0.0611
     19 C          -4.7870    1.8256   -0.8953 C.ar    1  UNL11      -0.0617
     20 C          -3.4487    2.1127   -1.0670 C.ar    1  UNL11      -0.0611
     21 C          -2.5141    1.2256   -0.5774 C.ar    1  UNL11      -0.0526
     22 N          -0.6160   -0.3771    0.9638 N.ar    1  UNL11      -0.1946
     23 C           1.0851    1.6084    2.0217 C.ar    1  UNL11       0.0110
     24 H           2.9785    4.3609    1.8657 H       1  UNL11       0.0669
     25 H           4.0670    0.2164    1.4810 H       1  UNL11       0.0683
     26 H          -1.1912   -4.0845    1.2381 H       1  UNL11       0.0832
     27 H          -2.9479   -2.6709    0.4047 H       1  UNL11       0.0654
     28 H          -4.5542   -1.0646    0.7225 H       1  UNL11       0.0624
     29 H          -6.2199    0.4510   -0.1134 H       1  UNL11       0.0618
     30 H          -5.5506    2.5110   -1.2734 H       1  UNL11       0.0618
     31 H          -3.1407    3.0335   -1.5855 H       1  UNL11       0.0618
     32 H          -1.4666    1.4743   -0.7253 H       1  UNL11       0.0624
     33 H           0.0333    1.3447    2.1736 H       1  UNL11       0.0677
     34 H           0.0055    5.8910    2.3958 H       1  UNL11       0.3292
@<TRIPOS>BOND
     1     1     2    2
     2     2     3    1
     3     2     4    1
     4     4     5   ar
     5     5     6   ar
     6     5    24    1
     7     6     7    1
     8     6     8   ar
     9     8     9   ar
    10     8    25    1
    11     9    10    1
    12     9    23   ar
    13    10    11    1
    14    11    12   ar
    15    12    13   ar
    16    13    14   ar
    17    13    26    1
    18    14    15   ar
    19    14    27    1
    20    15    16    1
    21    15    22   ar
    22    16    17   ar
    23    17    18   ar
    24    17    28    1
    25    18    19   ar
    26    18    29    1
    27    19    20   ar
    28    19    30    1
    29    20    21   ar
    30    20    31    1
    31    21    16   ar
    32    21    32    1
    33    22    11   ar
    34    23     4   ar
    35    23    33    1
    36     3    34    1
@<TRIPOS>MOLECULE
*****
 34 36 0 0 0
SMALL
GASTEIGER

@<TRIPOS>ATOM
      1 O           3.4383   -5.1848    0.6470 O.2     1  UNL11      -0.1300
      2 N           3.8508   -4.9435    1.7895 N.4     1  UNL11       0.0062
      3 O           4.3712   -5.9504    2.5534 O.2     1  UNL11      -0.3961
      4 C           3.7704   -3.6161    2.2771 C.ar    1  UNL11       0.1278
      5 C           4.7003   -3.1301    3.1880 C.ar    1  UNL11       0.0039
      6 C           4.5788   -1.8222    3.6363 C.ar    1  UNL11       0.1290
      7 F           5.4803   -1.3119    4.5357 F       1  UNL11      -0.2053
      8 C           3.5659   -0.9954    3.2053 C.ar    1  UNL11       0.0161
      9 C           2.6374   -1.4566    2.3057 C.ar    1  UNL11       0.1368
     10 O           1.5956   -0.7027    1.8224 O.3     1  UNL11      -0.4235
     11 C           0.3722   -1.1602    1.4311 C.ar    1  UNL11       0.3239
     12 N           0.1357   -2.4887    1.5182 N.ar    1  UNL11      -0.2030
     13 C          -1.0275   -3.0246    1.1594 C.ar    1  UNL11       0.0350
     14 C          -2.0390   -2.1994    0.6781 C.ar    1  UNL11      -0.0173
     15 C          -1.8199   -0.8540    0.5823 C.ar    1  UNL11       0.0778
     16 C          -2.8545    0.0552    0.0812 C.ar    1  UNL11       0.0006
     17 C          -4.1938   -0.1917    0.2304 C.ar    1  UNL11      -0.0526
     18 C          -5.1684    0.6846   -0.2528 C.ar    1  UNL11      -0.0611
     19 C          -4.7870    1.8256   -0.8953 C.ar    1  UNL11      -0.0617
     20 C          -3.4487    2.1127   -1.0670 C.ar    1  UNL11      -0.0611
     21 C          -2.5141    1.2256   -0.5774 C.ar    1  UNL11      -0.0526
     22 N          -0.6160   -0.3771    0.9638 N.ar    1  UNL11      -0.1946
     23 C           2.7709   -2.7663    1.8657 C.ar    1  UNL11       0.0110
     24 H           5.4927   -3.7804    3.5238 H       1  UNL11       0.0669
     25 H           3.4764    0.0200    3.5571 H       1  UNL11       0.0683
     26 H          -1.1912   -4.0845    1.2381 H       1  UNL11       0.0832
     27 H          -2.9479   -2.6709    0.4047 H       1  UNL11       0.0654
     28 H          -4.5542   -1.0646    0.7225 H       1  UNL11       0.0624
     29 H          -6.2199    0.4510   -0.1134 H       1  UNL11       0.0618
     30 H          -5.5506    2.5110   -1.2734 H       1  UNL11       0.0618
     31 H          -3.1407    3.0335   -1.5855 H       1  UNL11       0.0618
     32 H          -1.4666    1.4743   -0.7253 H       1  UNL11       0.0624
     33 H           2.0502   -3.1714    1.1479 H       1  UNL11       0.0677
     34 H           4.4155   -6.8221    2.2125 H       1  UNL11       0.3292
@<TRIPOS>BOND
     1     1     2    2
     2     2     3    1
     3     2     4    1
     4     4     5   ar
     5     5     6   ar
     6     5    24    1
     7     6     7    1
     8     6     8   ar
     9     8     9   ar
    10     8    25    1
    11     9    10    1
    12     9    23   ar
    13    10    11    1
    14    11    12   ar
    15    12    13   ar
    16    13    14   ar
    17    13    26    1
    18    14    15   ar
    19    14    27    1
    20    15    16    1
    21    15    22   ar
    22    16    17   ar
    23    17    18   ar
    24    17    28    1
    25    18    19   ar
    26    18    29    1
    27    19    20   ar
    28    19    30    1
    29    20    21   ar
    30    20    31    1
    31    21    16   ar
    32    21    32    1
    33    22    11   ar
    34    23     4   ar
    35    23    33    1
    36     3    34    1
