@<TRIPOS>MOLECULE
*****
 59 63 0 0 0
SMALL
GASTEIGER

@<TRIPOS>ATOM
      1 N          -6.4380    0.9162    0.5846 N.pl3   1  UNL11      -0.2515
      2 C          -5.6347   -0.1710    0.1407 C.2     1  UNL11       0.2546
      3 C          -5.9917   -1.3967    0.4605 C.2     1  UNL11       0.0151
      4 C          -6.9119   -2.3364    1.1251 C.3     1  UNL11      -0.0202
      5 C          -5.7309   -2.8937    0.4002 C.3     1  UNL11      -0.0202
      6 N          -4.4817    0.0837   -0.6318 N.pl3   1  UNL11      -0.2241
      7 C          -4.1599    1.4831   -0.9217 C.3     1  UNL11       0.0818
      8 C          -2.9295    1.8103   -0.0965 C.3     1  UNL11      -0.0009
      9 C          -1.7116    1.1024   -0.6224 C.3     1  UNL11       0.0185
     10 N          -1.6309   -0.1963   -0.0098 N.am    1  UNL11      -0.2937
     11 C          -0.4756   -0.4501    0.7517 C.2     1  UNL11       0.2495
     12 O          -0.2947   -1.5671    1.3261 O.2     1  UNL11      -0.2699
     13 C           0.6020    0.5279    0.9475 C.ar    1  UNL11       0.0723
     14 C           0.3334    1.9052    0.9420 C.ar    1  UNL11      -0.0433
     15 C           1.3126    2.8406    1.1146 C.ar    1  UNL11      -0.0405
     16 C           1.0088    4.2712    1.0930 C.3     1  UNL11       0.0211
     17 C           1.3360    5.0167    2.3223 C.2     1  UNL11       0.1192
     18 N           1.6875    6.3323    2.2406 N.2     1  UNL11      -0.0073
     19 N           1.9257    7.0065    3.3304 N.am    1  UNL11      -0.0356
     20 C           1.8529    6.5024    4.5614 C.2     1  UNL11       0.4383
     21 O           2.0913    7.1870    5.6156 O.2     1  UNL11      -0.2116
     22 C           1.5070    5.1903    4.7083 C.ar    1  UNL11       0.1004
     23 C           1.4340    4.6300    5.9653 C.ar    1  UNL11      -0.0441
     24 C           1.0989    3.3024    6.1062 C.ar    1  UNL11      -0.0608
     25 C           0.8383    2.5384    4.9932 C.ar    1  UNL11      -0.0611
     26 C           0.9119    3.1026    3.7399 C.ar    1  UNL11      -0.0518
     27 C           1.2467    4.4454    3.5540 C.ar    1  UNL11       0.0192
     28 C           2.6042    2.3622    1.2996 C.ar    1  UNL11      -0.0555
     29 C           2.8726    1.0152    1.3057 C.ar    1  UNL11      -0.0254
     30 C           1.8722    0.0723    1.1292 C.ar    1  UNL11       0.1355
     31 F           2.1313   -1.2551    1.1347 F       1  UNL11      -0.2047
     32 C          -2.5805   -1.2740   -0.0810 C.3     1  UNL11       0.0510
     33 C          -3.6696   -1.0231   -1.0968 C.3     1  UNL11       0.0960
     34 H          -5.9895    1.7383    1.0834 H       1  UNL11       0.2881
     35 H          -7.4655    0.9843    0.4599 H       1  UNL11       0.2881
     36 H          -7.9134   -2.5425    0.6909 H       1  UNL11       0.0316
     37 H          -6.8707   -2.4446    2.2324 H       1  UNL11       0.0316
     38 H          -4.8583   -3.2568    1.0009 H       1  UNL11       0.0316
     39 H          -5.9126   -3.3933   -0.5760 H       1  UNL11       0.0316
     40 H          -4.9806    2.1232   -0.5478 H       1  UNL11       0.0726
     41 H          -3.9719    1.6541   -1.9968 H       1  UNL11       0.0726
     42 H          -3.1586    1.5556    0.9503 H       1  UNL11       0.0317
     43 H          -2.7431    2.8935   -0.1692 H       1  UNL11       0.0317
     44 H          -1.7787    0.9279   -1.7305 H       1  UNL11       0.0466
     45 H          -0.8072    1.7195   -0.4380 H       1  UNL11       0.0466
     46 H          -0.7252    2.1509    0.8016 H       1  UNL11       0.0629
     47 H          -0.0960    4.4088    0.8821 H       1  UNL11       0.0379
     48 H           1.5292    4.7386    0.2400 H       1  UNL11       0.0379
     49 H           2.1998    8.0417    3.2937 H       1  UNL11       0.4829
     50 H           1.6451    5.2531    6.8445 H       1  UNL11       0.0627
     51 H           1.0427    2.8705    7.0764 H       1  UNL11       0.0618
     52 H           0.5765    1.4990    5.1080 H       1  UNL11       0.0618
     53 H           0.7295    2.5063    2.8766 H       1  UNL11       0.0624
     54 H           3.3860    3.0797    1.4369 H       1  UNL11       0.0621
     55 H           3.8742    0.6326    1.4493 H       1  UNL11       0.0646
     56 H          -2.0553   -2.2295   -0.3471 H       1  UNL11       0.0502
     57 H          -3.0954   -1.4287    0.9096 H       1  UNL11       0.0502
     58 H          -4.2885   -1.9379   -1.1793 H       1  UNL11       0.0742
     59 H          -3.2092   -0.7832   -2.0983 H       1  UNL11       0.0742
@<TRIPOS>BOND
     1     1     2    1
     2     1    34    1
     3     1    35    1
     4     2     3    2
     5     2     6    1
     6     3     4    1
     7     4     5    1
     8     4    36    1
     9     4    37    1
    10     5     3    1
    11     5    38    1
    12     5    39    1
    13     6     7    1
    14     7     8    1
    15     7    40    1
    16     7    41    1
    17     8     9    1
    18     8    42    1
    19     8    43    1
    20     9    10    1
    21     9    44    1
    22     9    45    1
    23    10    11   am
    24    10    32    1
    25    11    12    2
    26    11    13    1
    27    13    14   ar
    28    14    15   ar
    29    14    46    1
    30    15    16    1
    31    15    28   ar
    32    16    17    1
    33    16    47    1
    34    16    48    1
    35    17    18    2
    36    18    19    1
    37    19    20   am
    38    19    49    1
    39    20    21    2
    40    20    22    1
    41    22    23   ar
    42    23    24   ar
    43    23    50    1
    44    24    25   ar
    45    24    51    1
    46    25    26   ar
    47    25    52    1
    48    26    27   ar
    49    26    53    1
    50    27    17    1
    51    27    22   ar
    52    28    29   ar
    53    28    54    1
    54    29    30   ar
    55    29    55    1
    56    30    31    1
    57    30    13   ar
    58    32    33    1
    59    32    56    1
    60    32    57    1
    61    33     6    1
    62    33    58    1
    63    33    59    1
@<TRIPOS>MOLECULE
*****
 59 63 0 0 0
SMALL
GASTEIGER

@<TRIPOS>ATOM
      1 N          -1.5497    1.3198   -3.8978 N.pl3   1  UNL11      -0.2515
      2 C          -2.9010    0.9653   -3.6280 C.2     1  UNL11       0.2546
      3 C          -3.7875    1.0576   -4.5963 C.2     1  UNL11       0.0151
      4 C          -4.1410    1.3797   -5.9902 C.3     1  UNL11      -0.0202
      5 C          -5.2217    0.9006   -5.0772 C.3     1  UNL11      -0.0202
      6 N          -3.2611    0.5208   -2.3380 N.pl3   1  UNL11      -0.2241
      7 C          -3.8125   -0.8312   -2.2201 C.3     1  UNL11       0.0818
      8 C          -2.7424   -1.6626   -1.5378 C.3     1  UNL11      -0.0009
      9 C          -2.5812   -1.2724   -0.0946 C.3     1  UNL11       0.0185
     10 N          -1.6309   -0.1963   -0.0098 N.am    1  UNL11      -0.2937
     11 C          -0.4756   -0.4501    0.7517 C.2     1  UNL11       0.2495
     12 O          -0.2947   -1.5671    1.3261 O.2     1  UNL11      -0.2699
     13 C           0.6020    0.5279    0.9475 C.ar    1  UNL11       0.0723
     14 C           0.3334    1.9052    0.9420 C.ar    1  UNL11      -0.0433
     15 C           1.3126    2.8406    1.1146 C.ar    1  UNL11      -0.0405
     16 C           1.0088    4.2712    1.0930 C.3     1  UNL11       0.0211
     17 C           1.8759    5.1254    1.9253 C.2     1  UNL11       0.1192
     18 N           3.2161    5.1735    1.6755 N.2     1  UNL11      -0.0073
     19 N           3.9760    5.9678    2.3760 N.am    1  UNL11      -0.0356
     20 C           3.5399    6.7652    3.3501 C.2     1  UNL11       0.4383
     21 O           4.3078    7.5367    4.0224 O.2     1  UNL11      -0.2116
     22 C           2.2080    6.7608    3.6479 C.ar    1  UNL11       0.1004
     23 C           1.7217    7.5624    4.6580 C.ar    1  UNL11      -0.0441
     24 C           0.3796    7.5428    4.9635 C.ar    1  UNL11      -0.0608
     25 C          -0.4722    6.7235    4.2610 C.ar    1  UNL11      -0.0611
     26 C           0.0180    5.9251    3.2527 C.ar    1  UNL11      -0.0518
     27 C           1.3718    5.9167    2.9107 C.ar    1  UNL11       0.0192
     28 C           2.6042    2.3622    1.2996 C.ar    1  UNL11      -0.0555
     29 C           2.8726    1.0152    1.3057 C.ar    1  UNL11      -0.0254
     30 C           1.8722    0.0723    1.1292 C.ar    1  UNL11       0.1355
     31 F           2.1313   -1.2551    1.1347 F       1  UNL11      -0.2047
     32 C          -1.7135    1.1121   -0.6011 C.3     1  UNL11       0.0510
     33 C          -3.0715    1.3956   -1.1981 C.3     1  UNL11       0.0960
     34 H          -1.0408    1.9962   -3.2581 H       1  UNL11       0.2881
     35 H          -0.9907    0.9626   -4.6951 H       1  UNL11       0.2881
     36 H          -3.8409    0.7004   -6.8163 H       1  UNL11       0.0316
     37 H          -4.2296    2.4469   -6.2948 H       1  UNL11       0.0316
     38 H          -5.9511    1.6489   -4.6745 H       1  UNL11       0.0316
     39 H          -5.5911   -0.1387   -5.2149 H       1  UNL11       0.0316
     40 H          -3.9509   -1.2501   -3.2342 H       1  UNL11       0.0726
     41 H          -4.7546   -0.8489   -1.6435 H       1  UNL11       0.0726
     42 H          -1.8156   -1.5490   -2.1219 H       1  UNL11       0.0317
     43 H          -3.0560   -2.7182   -1.5648 H       1  UNL11       0.0317
     44 H          -3.5417   -0.8838    0.3404 H       1  UNL11       0.0466
     45 H          -2.2801   -2.1575    0.5044 H       1  UNL11       0.0466
     46 H          -0.7252    2.1509    0.8016 H       1  UNL11       0.0629
     47 H          -0.0624    4.4242    1.4294 H       1  UNL11       0.0379
     48 H           1.0420    4.6323    0.0512 H       1  UNL11       0.0379
     49 H           5.0308    6.0270    2.1971 H       1  UNL11       0.4829
     50 H           2.4146    8.2111    5.2100 H       1  UNL11       0.0627
     51 H           0.0048    8.1615    5.7429 H       1  UNL11       0.0618
     52 H          -1.5225    6.7110    4.5037 H       1  UNL11       0.0618
     53 H          -0.6381    5.2759    2.7216 H       1  UNL11       0.0624
     54 H           3.3860    3.0797    1.4369 H       1  UNL11       0.0621
     55 H           3.8742    0.6326    1.4493 H       1  UNL11       0.0646
     56 H          -1.4907    1.8955    0.1711 H       1  UNL11       0.0502
     57 H          -0.9655    1.2292   -1.4360 H       1  UNL11       0.0502
     58 H          -3.0960    2.4536   -1.5248 H       1  UNL11       0.0742
     59 H          -3.8730    1.2174   -0.4244 H       1  UNL11       0.0742
@<TRIPOS>BOND
     1     1     2    1
     2     1    34    1
     3     1    35    1
     4     2     3    2
     5     2     6    1
     6     3     4    1
     7     4     5    1
     8     4    36    1
     9     4    37    1
    10     5     3    1
    11     5    38    1
    12     5    39    1
    13     6     7    1
    14     7     8    1
    15     7    40    1
    16     7    41    1
    17     8     9    1
    18     8    42    1
    19     8    43    1
    20     9    10    1
    21     9    44    1
    22     9    45    1
    23    10    11   am
    24    10    32    1
    25    11    12    2
    26    11    13    1
    27    13    14   ar
    28    14    15   ar
    29    14    46    1
    30    15    16    1
    31    15    28   ar
    32    16    17    1
    33    16    47    1
    34    16    48    1
    35    17    18    2
    36    18    19    1
    37    19    20   am
    38    19    49    1
    39    20    21    2
    40    20    22    1
    41    22    23   ar
    42    23    24   ar
    43    23    50    1
    44    24    25   ar
    45    24    51    1
    46    25    26   ar
    47    25    52    1
    48    26    27   ar
    49    26    53    1
    50    27    17    1
    51    27    22   ar
    52    28    29   ar
    53    28    54    1
    54    29    30   ar
    55    29    55    1
    56    30    31    1
    57    30    13   ar
    58    32    33    1
    59    32    56    1
    60    32    57    1
    61    33     6    1
    62    33    58    1
    63    33    59    1
@<TRIPOS>MOLECULE
*****
 59 63 0 0 0
SMALL
GASTEIGER

@<TRIPOS>ATOM
      1 N          -6.6798   -0.9718   -0.3989 N.pl3   1  UNL11      -0.2515
      2 C          -5.6347   -0.1710    0.1407 C.2     1  UNL11       0.2546
      3 C          -5.7685    0.3125    1.3573 C.2     1  UNL11       0.0151
      4 C          -6.5424    0.4682    2.6017 C.3     1  UNL11      -0.0202
      5 C          -5.2094    1.1355    2.5075 C.3     1  UNL11      -0.0202
      6 N          -4.4817    0.0837   -0.6318 N.pl3   1  UNL11      -0.2241
      7 C          -4.1599    1.4831   -0.9217 C.3     1  UNL11       0.0818
      8 C          -2.9295    1.8103   -0.0965 C.3     1  UNL11      -0.0009
      9 C          -1.7116    1.1024   -0.6224 C.3     1  UNL11       0.0185
     10 N          -1.6309   -0.1963   -0.0098 N.am    1  UNL11      -0.2937
     11 C          -0.4756   -0.4501    0.7517 C.2     1  UNL11       0.2495
     12 O          -0.2947   -1.5671    1.3261 O.2     1  UNL11      -0.2699
     13 C           0.6020    0.5279    0.9475 C.ar    1  UNL11       0.0723
     14 C           0.3334    1.9052    0.9420 C.ar    1  UNL11      -0.0433
     15 C           1.3126    2.8406    1.1146 C.ar    1  UNL11      -0.0405
     16 C           1.0088    4.2712    1.0930 C.3     1  UNL11       0.0211
     17 C           1.6958    5.0588    0.0529 C.2     1  UNL11       0.1192
     18 N           1.4802    6.4034   -0.0283 N.2     1  UNL11      -0.0073
     19 N           2.1267    7.1094   -0.9130 N.am    1  UNL11      -0.0356
     20 C           3.0116    6.6121   -1.7758 C.2     1  UNL11       0.4383
     21 O           3.6335    7.3281   -2.6345 O.2     1  UNL11      -0.2116
     22 C           3.2694    5.2723   -1.7446 C.ar    1  UNL11       0.1004
     23 C           4.1688    4.7193   -2.6303 C.ar    1  UNL11      -0.0441
     24 C           4.4138    3.3650   -2.6036 C.ar    1  UNL11      -0.0608
     25 C           3.7606    2.5673   -1.6941 C.ar    1  UNL11      -0.0611
     26 C           2.8635    3.1241   -0.8111 C.ar    1  UNL11      -0.0518
     27 C           2.5882    4.4930   -0.8044 C.ar    1  UNL11       0.0192
     28 C           2.6042    2.3622    1.2996 C.ar    1  UNL11      -0.0555
     29 C           2.8726    1.0152    1.3057 C.ar    1  UNL11      -0.0254
     30 C           1.8722    0.0723    1.1292 C.ar    1  UNL11       0.1355
     31 F           2.1313   -1.2551    1.1347 F       1  UNL11      -0.2047
     32 C          -2.5805   -1.2740   -0.0810 C.3     1  UNL11       0.0510
     33 C          -3.6696   -1.0231   -1.0968 C.3     1  UNL11       0.0960
     34 H          -7.0753   -0.7517   -1.3586 H       1  UNL11       0.2881
     35 H          -7.1091   -1.7868    0.0779 H       1  UNL11       0.2881
     36 H          -6.6333   -0.3782    3.3154 H       1  UNL11       0.0316
     37 H          -7.4105    1.1651    2.6172 H       1  UNL11       0.0316
     38 H          -5.1770    2.2421    2.3389 H       1  UNL11       0.0316
     39 H          -4.3665    0.6883    3.0778 H       1  UNL11       0.0316
     40 H          -4.9806    2.1232   -0.5478 H       1  UNL11       0.0726
     41 H          -3.9719    1.6541   -1.9968 H       1  UNL11       0.0726
     42 H          -3.1586    1.5556    0.9503 H       1  UNL11       0.0317
     43 H          -2.7431    2.8935   -0.1692 H       1  UNL11       0.0317
     44 H          -1.7787    0.9279   -1.7305 H       1  UNL11       0.0466
     45 H          -0.8072    1.7195   -0.4380 H       1  UNL11       0.0466
     46 H          -0.7252    2.1509    0.8016 H       1  UNL11       0.0629
     47 H           1.2700    4.7173    2.1014 H       1  UNL11       0.0379
     48 H          -0.0805    4.4081    0.9866 H       1  UNL11       0.0379
     49 H           1.9782    8.1674   -0.9946 H       1  UNL11       0.4829
     50 H           4.6825    5.3696   -3.3508 H       1  UNL11       0.0627
     51 H           5.1080    2.9389   -3.2873 H       1  UNL11       0.0618
     52 H           3.9552    1.5070   -1.6768 H       1  UNL11       0.0618
     53 H           2.3428    2.5037   -0.1197 H       1  UNL11       0.0624
     54 H           3.3860    3.0797    1.4369 H       1  UNL11       0.0621
     55 H           3.8742    0.6326    1.4493 H       1  UNL11       0.0646
     56 H          -2.0553   -2.2295   -0.3471 H       1  UNL11       0.0502
     57 H          -3.0954   -1.4287    0.9096 H       1  UNL11       0.0502
     58 H          -4.2885   -1.9379   -1.1793 H       1  UNL11       0.0742
     59 H          -3.2092   -0.7832   -2.0983 H       1  UNL11       0.0742
@<TRIPOS>BOND
     1     1     2    1
     2     1    34    1
     3     1    35    1
     4     2     3    2
     5     2     6    1
     6     3     4    1
     7     4     5    1
     8     4    36    1
     9     4    37    1
    10     5     3    1
    11     5    38    1
    12     5    39    1
    13     6     7    1
    14     7     8    1
    15     7    40    1
    16     7    41    1
    17     8     9    1
    18     8    42    1
    19     8    43    1
    20     9    10    1
    21     9    44    1
    22     9    45    1
    23    10    11   am
    24    10    32    1
    25    11    12    2
    26    11    13    1
    27    13    14   ar
    28    14    15   ar
    29    14    46    1
    30    15    16    1
    31    15    28   ar
    32    16    17    1
    33    16    47    1
    34    16    48    1
    35    17    18    2
    36    18    19    1
    37    19    20   am
    38    19    49    1
    39    20    21    2
    40    20    22    1
    41    22    23   ar
    42    23    24   ar
    43    23    50    1
    44    24    25   ar
    45    24    51    1
    46    25    26   ar
    47    25    52    1
    48    26    27   ar
    49    26    53    1
    50    27    17    1
    51    27    22   ar
    52    28    29   ar
    53    28    54    1
    54    29    30   ar
    55    29    55    1
    56    30    31    1
    57    30    13   ar
    58    32    33    1
    59    32    56    1
    60    32    57    1
    61    33     6    1
    62    33    58    1
    63    33    59    1
@<TRIPOS>MOLECULE
*****
 59 63 0 0 0
SMALL
GASTEIGER

@<TRIPOS>ATOM
      1 N          -1.5849    0.7254   -4.1124 N.pl3   1  UNL11      -0.2515
      2 C          -2.9010    0.9653   -3.6280 C.2     1  UNL11       0.2546
      3 C          -3.7576    1.5970   -4.4021 C.2     1  UNL11       0.0151
      4 C          -4.0934    2.2657   -5.6717 C.3     1  UNL11      -0.0202
      5 C          -5.1491    2.1708   -4.6193 C.3     1  UNL11      -0.0202
      6 N          -3.2611    0.5208   -2.3380 N.pl3   1  UNL11      -0.2241
      7 C          -3.8125   -0.8312   -2.2201 C.3     1  UNL11       0.0818
      8 C          -2.7424   -1.6626   -1.5378 C.3     1  UNL11      -0.0009
      9 C          -2.5812   -1.2724   -0.0946 C.3     1  UNL11       0.0185
     10 N          -1.6309   -0.1963   -0.0098 N.am    1  UNL11      -0.2937
     11 C          -0.4756   -0.4501    0.7517 C.2     1  UNL11       0.2495
     12 O          -0.2947   -1.5671    1.3261 O.2     1  UNL11      -0.2699
     13 C           0.6020    0.5279    0.9475 C.ar    1  UNL11       0.0723
     14 C           1.7365    0.2059    1.7080 C.ar    1  UNL11      -0.0433
     15 C           2.7528    1.0935    1.9147 C.ar    1  UNL11      -0.0405
     16 C           3.9199    0.7377    2.7214 C.3     1  UNL11       0.0211
     17 C           4.2914   -0.6892    2.7206 C.2     1  UNL11       0.1192
     18 N           5.3590   -1.1092    3.4586 N.2     1  UNL11      -0.0073
     19 N           5.6567   -2.3775    3.5009 N.am    1  UNL11      -0.0356
     20 C           4.9832   -3.3330    2.8618 C.2     1  UNL11       0.4383
     21 O           5.2964   -4.5721    2.9209 O.2     1  UNL11      -0.2116
     22 C           3.9050   -2.9750    2.1055 C.ar    1  UNL11       0.1004
     23 C           3.1915   -3.9339    1.4194 C.ar    1  UNL11      -0.0441
     24 C           2.1138   -3.5650    0.6466 C.ar    1  UNL11      -0.0608
     25 C           1.7520   -2.2413    0.5605 C.ar    1  UNL11      -0.0611
     26 C           2.4674   -1.2873    1.2480 C.ar    1  UNL11      -0.0518
     27 C           3.5654   -1.6200    2.0438 C.ar    1  UNL11       0.0192
     28 C           2.6129    2.3465    1.3301 C.ar    1  UNL11      -0.0555
     29 C           1.5045    2.6669    0.5850 C.ar    1  UNL11      -0.0254
     30 C           0.4769    1.7595    0.3805 C.ar    1  UNL11       0.1355
     31 F          -0.6164    2.0701   -0.3525 F       1  UNL11      -0.2047
     32 C          -1.7135    1.1121   -0.6011 C.3     1  UNL11       0.0510
     33 C          -3.0715    1.3956   -1.1981 C.3     1  UNL11       0.0960
     34 H          -0.7451    0.9924   -3.5215 H       1  UNL11       0.2881
     35 H          -1.3594    0.2941   -5.0284 H       1  UNL11       0.2881
     36 H          -4.2478    1.6693   -6.5961 H       1  UNL11       0.0316
     37 H          -3.7156    3.2961   -5.8587 H       1  UNL11       0.0316
     38 H          -5.3926    3.0869   -4.0231 H       1  UNL11       0.0316
     39 H          -5.9715    1.4397   -4.7772 H       1  UNL11       0.0316
     40 H          -3.9509   -1.2501   -3.2342 H       1  UNL11       0.0726
     41 H          -4.7546   -0.8489   -1.6435 H       1  UNL11       0.0726
     42 H          -1.8156   -1.5490   -2.1219 H       1  UNL11       0.0317
     43 H          -3.0560   -2.7182   -1.5648 H       1  UNL11       0.0317
     44 H          -3.5417   -0.8838    0.3404 H       1  UNL11       0.0466
     45 H          -2.2801   -2.1575    0.5044 H       1  UNL11       0.0466
     46 H           1.7321   -0.8169    2.1012 H       1  UNL11       0.0629
     47 H           3.7343    1.0519    3.7942 H       1  UNL11       0.0379
     48 H           4.7855    1.3346    2.3881 H       1  UNL11       0.0379
     49 H           6.4878   -2.7335    4.0759 H       1  UNL11       0.4829
     50 H           3.4928   -4.9868    1.4981 H       1  UNL11       0.0627
     51 H           1.5635   -4.3052    0.1174 H       1  UNL11       0.0618
     52 H           0.9075   -1.9567   -0.0461 H       1  UNL11       0.0618
     53 H           2.1996   -0.2599    1.1659 H       1  UNL11       0.0624
     54 H           3.3991    3.0566    1.4803 H       1  UNL11       0.0621
     55 H           1.3861    3.6391    0.1255 H       1  UNL11       0.0646
     56 H          -1.4907    1.8955    0.1711 H       1  UNL11       0.0502
     57 H          -0.9655    1.2292   -1.4360 H       1  UNL11       0.0502
     58 H          -3.0960    2.4536   -1.5248 H       1  UNL11       0.0742
     59 H          -3.8730    1.2174   -0.4244 H       1  UNL11       0.0742
@<TRIPOS>BOND
     1     1     2    1
     2     1    34    1
     3     1    35    1
     4     2     3    2
     5     2     6    1
     6     3     4    1
     7     4     5    1
     8     4    36    1
     9     4    37    1
    10     5     3    1
    11     5    38    1
    12     5    39    1
    13     6     7    1
    14     7     8    1
    15     7    40    1
    16     7    41    1
    17     8     9    1
    18     8    42    1
    19     8    43    1
    20     9    10    1
    21     9    44    1
    22     9    45    1
    23    10    11   am
    24    10    32    1
    25    11    12    2
    26    11    13    1
    27    13    14   ar
    28    14    15   ar
    29    14    46    1
    30    15    16    1
    31    15    28   ar
    32    16    17    1
    33    16    47    1
    34    16    48    1
    35    17    18    2
    36    18    19    1
    37    19    20   am
    38    19    49    1
    39    20    21    2
    40    20    22    1
    41    22    23   ar
    42    23    24   ar
    43    23    50    1
    44    24    25   ar
    45    24    51    1
    46    25    26   ar
    47    25    52    1
    48    26    27   ar
    49    26    53    1
    50    27    17    1
    51    27    22   ar
    52    28    29   ar
    53    28    54    1
    54    29    30   ar
    55    29    55    1
    56    30    31    1
    57    30    13   ar
    58    32    33    1
    59    32    56    1
    60    32    57    1
    61    33     6    1
    62    33    58    1
    63    33    59    1
@<TRIPOS>MOLECULE
*****
 59 63 0 0 0
SMALL
GASTEIGER

@<TRIPOS>ATOM
      1 N          -3.8629    1.6349   -4.4349 N.pl3   1  UNL11      -0.2515
      2 C          -2.9010    0.9653   -3.6280 C.2     1  UNL11       0.2546
      3 C          -1.6893    0.7792   -4.1066 C.2     1  UNL11       0.0151
      4 C          -0.6949    0.9282   -5.1840 C.3     1  UNL11      -0.0202
      5 C          -0.2799    0.2371   -3.9265 C.3     1  UNL11      -0.0202
      6 N          -3.2611    0.5208   -2.3380 N.pl3   1  UNL11      -0.2241
      7 C          -3.8125   -0.8312   -2.2201 C.3     1  UNL11       0.0818
      8 C          -2.7424   -1.6626   -1.5378 C.3     1  UNL11      -0.0009
      9 C          -2.5812   -1.2724   -0.0946 C.3     1  UNL11       0.0185
     10 N          -1.6309   -0.1963   -0.0098 N.am    1  UNL11      -0.2937
     11 C          -0.4756   -0.4501    0.7517 C.2     1  UNL11       0.2495
     12 O          -0.2947   -1.5671    1.3261 O.2     1  UNL11      -0.2699
     13 C           0.6020    0.5279    0.9475 C.ar    1  UNL11       0.0723
     14 C           0.3334    1.9052    0.9420 C.ar    1  UNL11      -0.0433
     15 C           1.3126    2.8406    1.1146 C.ar    1  UNL11      -0.0405
     16 C           1.0088    4.2712    1.0930 C.3     1  UNL11       0.0211
     17 C           1.8759    5.1254    1.9253 C.2     1  UNL11       0.1192
     18 N           1.3275    5.8704    2.9278 N.2     1  UNL11      -0.0073
     19 N           2.0988    6.5851    3.6981 N.am    1  UNL11      -0.0356
     20 C           3.4246    6.6527    3.5856 C.2     1  UNL11       0.4383
     21 O           4.1592    7.3623    4.3562 O.2     1  UNL11      -0.2116
     22 C           4.0322    5.9302    2.6000 C.ar    1  UNL11       0.1004
     23 C           5.4004    5.9851    2.4443 C.ar    1  UNL11      -0.0441
     24 C           6.0060    5.2656    1.4392 C.ar    1  UNL11      -0.0608
     25 C           5.2448    4.4944    0.5928 C.ar    1  UNL11      -0.0611
     26 C           3.8787    4.4422    0.7525 C.ar    1  UNL11      -0.0518
     27 C           3.2262    5.1555    1.7601 C.ar    1  UNL11       0.0192
     28 C           2.6042    2.3622    1.2996 C.ar    1  UNL11      -0.0555
     29 C           2.8726    1.0152    1.3057 C.ar    1  UNL11      -0.0254
     30 C           1.8722    0.0723    1.1292 C.ar    1  UNL11       0.1355
     31 F           2.1313   -1.2551    1.1347 F       1  UNL11      -0.2047
     32 C          -1.7135    1.1121   -0.6011 C.3     1  UNL11       0.0510
     33 C          -3.0715    1.3956   -1.1981 C.3     1  UNL11       0.0960
     34 H          -4.8207    1.2042   -4.5860 H       1  UNL11       0.2881
     35 H          -3.7095    2.5446   -4.9089 H       1  UNL11       0.2881
     36 H          -0.2356    1.9183   -5.3904 H       1  UNL11       0.0316
     37 H          -0.7598    0.2671   -6.0774 H       1  UNL11       0.0316
     38 H          -0.1864   -0.8788   -3.9364 H       1  UNL11       0.0316
     39 H           0.3827    0.7915   -3.2270 H       1  UNL11       0.0316
     40 H          -3.9509   -1.2501   -3.2342 H       1  UNL11       0.0726
     41 H          -4.7546   -0.8489   -1.6435 H       1  UNL11       0.0726
     42 H          -1.8156   -1.5490   -2.1219 H       1  UNL11       0.0317
     43 H          -3.0560   -2.7182   -1.5648 H       1  UNL11       0.0317
     44 H          -3.5417   -0.8838    0.3404 H       1  UNL11       0.0466
     45 H          -2.2801   -2.1575    0.5044 H       1  UNL11       0.0466
     46 H          -0.7252    2.1509    0.8016 H       1  UNL11       0.0629
     47 H          -0.0624    4.4242    1.4294 H       1  UNL11       0.0379
     48 H           1.0420    4.6323    0.0512 H       1  UNL11       0.0379
     49 H           1.6935    7.1759    4.4947 H       1  UNL11       0.4829
     50 H           5.9946    6.6056    3.1281 H       1  UNL11       0.0627
     51 H           7.0618    5.3082    1.3195 H       1  UNL11       0.0618
     52 H           5.7231    3.9326   -0.1932 H       1  UNL11       0.0618
     53 H           3.2869    3.8607    0.0850 H       1  UNL11       0.0624
     54 H           3.3860    3.0797    1.4369 H       1  UNL11       0.0621
     55 H           3.8742    0.6326    1.4493 H       1  UNL11       0.0646
     56 H          -1.4907    1.8955    0.1711 H       1  UNL11       0.0502
     57 H          -0.9655    1.2292   -1.4360 H       1  UNL11       0.0502
     58 H          -3.0960    2.4536   -1.5248 H       1  UNL11       0.0742
     59 H          -3.8730    1.2174   -0.4244 H       1  UNL11       0.0742
@<TRIPOS>BOND
     1     1     2    1
     2     1    34    1
     3     1    35    1
     4     2     3    2
     5     2     6    1
     6     3     4    1
     7     4     5    1
     8     4    36    1
     9     4    37    1
    10     5     3    1
    11     5    38    1
    12     5    39    1
    13     6     7    1
    14     7     8    1
    15     7    40    1
    16     7    41    1
    17     8     9    1
    18     8    42    1
    19     8    43    1
    20     9    10    1
    21     9    44    1
    22     9    45    1
    23    10    11   am
    24    10    32    1
    25    11    12    2
    26    11    13    1
    27    13    14   ar
    28    14    15   ar
    29    14    46    1
    30    15    16    1
    31    15    28   ar
    32    16    17    1
    33    16    47    1
    34    16    48    1
    35    17    18    2
    36    18    19    1
    37    19    20   am
    38    19    49    1
    39    20    21    2
    40    20    22    1
    41    22    23   ar
    42    23    24   ar
    43    23    50    1
    44    24    25   ar
    45    24    51    1
    46    25    26   ar
    47    25    52    1
    48    26    27   ar
    49    26    53    1
    50    27    17    1
    51    27    22   ar
    52    28    29   ar
    53    28    54    1
    54    29    30   ar
    55    29    55    1
    56    30    31    1
    57    30    13   ar
    58    32    33    1
    59    32    56    1
    60    32    57    1
    61    33     6    1
    62    33    58    1
    63    33    59    1
@<TRIPOS>MOLECULE
*****
 59 63 0 0 0
SMALL
GASTEIGER

@<TRIPOS>ATOM
      1 N          -1.5849    0.7254   -4.1124 N.pl3   1  UNL11      -0.2515
      2 C          -2.9010    0.9653   -3.6280 C.2     1  UNL11       0.2546
      3 C          -3.7576    1.5970   -4.4021 C.2     1  UNL11       0.0151
      4 C          -4.0934    2.2657   -5.6717 C.3     1  UNL11      -0.0202
      5 C          -5.1491    2.1708   -4.6193 C.3     1  UNL11      -0.0202
      6 N          -3.2611    0.5208   -2.3380 N.pl3   1  UNL11      -0.2241
      7 C          -3.8125   -0.8312   -2.2201 C.3     1  UNL11       0.0818
      8 C          -2.7424   -1.6626   -1.5378 C.3     1  UNL11      -0.0009
      9 C          -2.5812   -1.2724   -0.0946 C.3     1  UNL11       0.0185
     10 N          -1.6309   -0.1963   -0.0098 N.am    1  UNL11      -0.2937
     11 C          -0.4756   -0.4501    0.7517 C.2     1  UNL11       0.2495
     12 O          -0.2947   -1.5671    1.3261 O.2     1  UNL11      -0.2699
     13 C           0.6020    0.5279    0.9475 C.ar    1  UNL11       0.0723
     14 C           0.8843    1.4930   -0.0313 C.ar    1  UNL11      -0.0433
     15 C           1.8828    2.4121    0.1164 C.ar    1  UNL11      -0.0405
     16 C           2.1653    3.4008   -0.9238 C.3     1  UNL11       0.0211
     17 C           1.8617    2.9851   -2.3055 C.2     1  UNL11       0.1192
     18 N           0.5823    2.6560   -2.6457 N.2     1  UNL11      -0.0073
     19 N           0.3025    2.3393   -3.8788 N.am    1  UNL11      -0.0356
     20 C           1.1913    2.3082   -4.8707 C.2     1  UNL11       0.4383
     21 O           0.8899    1.9942   -6.0739 O.2     1  UNL11      -0.2116
     22 C           2.4890    2.6265   -4.5925 C.ar    1  UNL11       0.1004
     23 C           3.4394    2.5928   -5.5899 C.ar    1  UNL11      -0.0441
     24 C           4.7494    2.9007   -5.3001 C.ar    1  UNL11      -0.0608
     25 C           5.1067    3.2406   -4.0167 C.ar    1  UNL11      -0.0611
     26 C           4.1539    3.2734   -3.0239 C.ar    1  UNL11      -0.0518
     27 C           2.8147    2.9696   -3.2767 C.ar    1  UNL11       0.0192
     28 C           2.6164    2.3496    1.2951 C.ar    1  UNL11      -0.0555
     29 C           2.3443    1.4070    2.2563 C.ar    1  UNL11      -0.0254
     30 C           1.3288    0.4771    2.0978 C.ar    1  UNL11       0.1355
     31 F           1.0568   -0.4529    3.0413 F       1  UNL11      -0.2047
     32 C          -1.7135    1.1121   -0.6011 C.3     1  UNL11       0.0510
     33 C          -3.0715    1.3956   -1.1981 C.3     1  UNL11       0.0960
     34 H          -0.7451    0.9924   -3.5215 H       1  UNL11       0.2881
     35 H          -1.3594    0.2941   -5.0284 H       1  UNL11       0.2881
     36 H          -4.2478    1.6693   -6.5961 H       1  UNL11       0.0316
     37 H          -3.7156    3.2961   -5.8587 H       1  UNL11       0.0316
     38 H          -5.3926    3.0869   -4.0231 H       1  UNL11       0.0316
     39 H          -5.9715    1.4397   -4.7772 H       1  UNL11       0.0316
     40 H          -3.9509   -1.2501   -3.2342 H       1  UNL11       0.0726
     41 H          -4.7546   -0.8489   -1.6435 H       1  UNL11       0.0726
     42 H          -1.8156   -1.5490   -2.1219 H       1  UNL11       0.0317
     43 H          -3.0560   -2.7182   -1.5648 H       1  UNL11       0.0317
     44 H          -3.5417   -0.8838    0.3404 H       1  UNL11       0.0466
     45 H          -2.2801   -2.1575    0.5044 H       1  UNL11       0.0466
     46 H           0.2254    1.4453   -0.9054 H       1  UNL11       0.0629
     47 H           3.2617    3.6826   -0.8745 H       1  UNL11       0.0379
     48 H           1.6148    4.3299   -0.6988 H       1  UNL11       0.0379
     49 H          -0.6949    2.0806   -4.1726 H       1  UNL11       0.4829
     50 H           3.1385    2.3193   -6.6100 H       1  UNL11       0.0627
     51 H           5.4823    2.8746   -6.0701 H       1  UNL11       0.0618
     52 H           6.1338    3.4808   -3.7940 H       1  UNL11       0.0618
     53 H           4.4338    3.5174   -2.0258 H       1  UNL11       0.0624
     54 H           3.4035    3.0618    1.4301 H       1  UNL11       0.0621
     55 H           2.9091    1.3501    3.1772 H       1  UNL11       0.0646
     56 H          -1.4907    1.8955    0.1711 H       1  UNL11       0.0502
     57 H          -0.9655    1.2292   -1.4360 H       1  UNL11       0.0502
     58 H          -3.0960    2.4536   -1.5248 H       1  UNL11       0.0742
     59 H          -3.8730    1.2174   -0.4244 H       1  UNL11       0.0742
@<TRIPOS>BOND
     1     1     2    1
     2     1    34    1
     3     1    35    1
     4     2     3    2
     5     2     6    1
     6     3     4    1
     7     4     5    1
     8     4    36    1
     9     4    37    1
    10     5     3    1
    11     5    38    1
    12     5    39    1
    13     6     7    1
    14     7     8    1
    15     7    40    1
    16     7    41    1
    17     8     9    1
    18     8    42    1
    19     8    43    1
    20     9    10    1
    21     9    44    1
    22     9    45    1
    23    10    11   am
    24    10    32    1
    25    11    12    2
    26    11    13    1
    27    13    14   ar
    28    14    15   ar
    29    14    46    1
    30    15    16    1
    31    15    28   ar
    32    16    17    1
    33    16    47    1
    34    16    48    1
    35    17    18    2
    36    18    19    1
    37    19    20   am
    38    19    49    1
    39    20    21    2
    40    20    22    1
    41    22    23   ar
    42    23    24   ar
    43    23    50    1
    44    24    25   ar
    45    24    51    1
    46    25    26   ar
    47    25    52    1
    48    26    27   ar
    49    26    53    1
    50    27    17    1
    51    27    22   ar
    52    28    29   ar
    53    28    54    1
    54    29    30   ar
    55    29    55    1
    56    30    31    1
    57    30    13   ar
    58    32    33    1
    59    32    56    1
    60    32    57    1
    61    33     6    1
    62    33    58    1
    63    33    59    1
@<TRIPOS>MOLECULE
*****
 59 63 0 0 0
SMALL
GASTEIGER

@<TRIPOS>ATOM
      1 N          -3.1006    0.1101   -4.7475 N.pl3   1  UNL11      -0.2515
      2 C          -2.9010    0.9653   -3.6280 C.2     1  UNL11       0.2546
      3 C          -2.3855    2.1600   -3.8251 C.2     1  UNL11       0.0151
      4 C          -1.8420    3.1942   -4.7233 C.3     1  UNL11      -0.0202
      5 C          -1.9146    3.4916   -3.2614 C.3     1  UNL11      -0.0202
      6 N          -3.2611    0.5208   -2.3380 N.pl3   1  UNL11      -0.2241
      7 C          -3.8125   -0.8312   -2.2201 C.3     1  UNL11       0.0818
      8 C          -2.7424   -1.6626   -1.5378 C.3     1  UNL11      -0.0009
      9 C          -2.5812   -1.2724   -0.0946 C.3     1  UNL11       0.0185
     10 N          -1.6309   -0.1963   -0.0098 N.am    1  UNL11      -0.2937
     11 C          -0.4756   -0.4501    0.7517 C.2     1  UNL11       0.2495
     12 O          -0.2947   -1.5671    1.3261 O.2     1  UNL11      -0.2699
     13 C           0.6020    0.5279    0.9475 C.ar    1  UNL11       0.0723
     14 C           1.7365    0.2059    1.7080 C.ar    1  UNL11      -0.0433
     15 C           2.7528    1.0935    1.9147 C.ar    1  UNL11      -0.0405
     16 C           3.9199    0.7377    2.7214 C.3     1  UNL11       0.0211
     17 C           4.1575    1.5738    3.9124 C.2     1  UNL11       0.1192
     18 N           4.1646    0.9995    5.1498 N.2     1  UNL11      -0.0073
     19 N           4.4266    1.7275    6.1988 N.am    1  UNL11      -0.0356
     20 C           4.6975    3.0315    6.1644 C.2     1  UNL11       0.4383
     21 O           4.9524    3.7233    7.2101 O.2     1  UNL11      -0.2116
     22 C           4.7041    3.6635    4.9548 C.ar    1  UNL11       0.1004
     23 C           4.9671    5.0143    4.8807 C.ar    1  UNL11      -0.0441
     24 C           4.9579    5.6491    3.6594 C.ar    1  UNL11      -0.0608
     25 C           4.6860    4.9346    2.5166 C.ar    1  UNL11      -0.0611
     26 C           4.4244    3.5856    2.5955 C.ar    1  UNL11      -0.0518
     27 C           4.4257    2.9041    3.8142 C.ar    1  UNL11       0.0192
     28 C           2.6129    2.3465    1.3301 C.ar    1  UNL11      -0.0555
     29 C           1.5045    2.6669    0.5850 C.ar    1  UNL11      -0.0254
     30 C           0.4769    1.7595    0.3805 C.ar    1  UNL11       0.1355
     31 F          -0.6164    2.0701   -0.3525 F       1  UNL11      -0.2047
     32 C          -1.7135    1.1121   -0.6011 C.3     1  UNL11       0.0510
     33 C          -3.0715    1.3956   -1.1981 C.3     1  UNL11       0.0960
     34 H          -2.7376   -0.8867   -4.7250 H       1  UNL11       0.2881
     35 H          -3.5899    0.3809   -5.6210 H       1  UNL11       0.2881
     36 H          -2.5188    3.7707   -5.3894 H       1  UNL11       0.0316
     37 H          -0.8094    3.0778   -5.1228 H       1  UNL11       0.0316
     38 H          -0.9696    3.4555   -2.6616 H       1  UNL11       0.0316
     39 H          -2.7035    4.1945   -2.9159 H       1  UNL11       0.0316
     40 H          -3.9509   -1.2501   -3.2342 H       1  UNL11       0.0726
     41 H          -4.7546   -0.8489   -1.6435 H       1  UNL11       0.0726
     42 H          -1.8156   -1.5490   -2.1219 H       1  UNL11       0.0317
     43 H          -3.0560   -2.7182   -1.5648 H       1  UNL11       0.0317
     44 H          -3.5417   -0.8838    0.3404 H       1  UNL11       0.0466
     45 H          -2.2801   -2.1575    0.5044 H       1  UNL11       0.0466
     46 H           1.7321   -0.8169    2.1012 H       1  UNL11       0.0629
     47 H           4.8452    0.7845    2.0690 H       1  UNL11       0.0379
     48 H           3.8359   -0.3170    3.0335 H       1  UNL11       0.0379
     49 H           4.4421    1.3000    7.1811 H       1  UNL11       0.4829
     50 H           5.1824    5.5712    5.8023 H       1  UNL11       0.0627
     51 H           5.1610    6.6914    3.6028 H       1  UNL11       0.0618
     52 H           4.6796    5.4358    1.5621 H       1  UNL11       0.0618
     53 H           4.1944    3.0359    1.7129 H       1  UNL11       0.0624
     54 H           3.3991    3.0566    1.4803 H       1  UNL11       0.0621
     55 H           1.3861    3.6391    0.1255 H       1  UNL11       0.0646
     56 H          -1.4907    1.8955    0.1711 H       1  UNL11       0.0502
     57 H          -0.9655    1.2292   -1.4360 H       1  UNL11       0.0502
     58 H          -3.0960    2.4536   -1.5248 H       1  UNL11       0.0742
     59 H          -3.8730    1.2174   -0.4244 H       1  UNL11       0.0742
@<TRIPOS>BOND
     1     1     2    1
     2     1    34    1
     3     1    35    1
     4     2     3    2
     5     2     6    1
     6     3     4    1
     7     4     5    1
     8     4    36    1
     9     4    37    1
    10     5     3    1
    11     5    38    1
    12     5    39    1
    13     6     7    1
    14     7     8    1
    15     7    40    1
    16     7    41    1
    17     8     9    1
    18     8    42    1
    19     8    43    1
    20     9    10    1
    21     9    44    1
    22     9    45    1
    23    10    11   am
    24    10    32    1
    25    11    12    2
    26    11    13    1
    27    13    14   ar
    28    14    15   ar
    29    14    46    1
    30    15    16    1
    31    15    28   ar
    32    16    17    1
    33    16    47    1
    34    16    48    1
    35    17    18    2
    36    18    19    1
    37    19    20   am
    38    19    49    1
    39    20    21    2
    40    20    22    1
    41    22    23   ar
    42    23    24   ar
    43    23    50    1
    44    24    25   ar
    45    24    51    1
    46    25    26   ar
    47    25    52    1
    48    26    27   ar
    49    26    53    1
    50    27    17    1
    51    27    22   ar
    52    28    29   ar
    53    28    54    1
    54    29    30   ar
    55    29    55    1
    56    30    31    1
    57    30    13   ar
    58    32    33    1
    59    32    56    1
    60    32    57    1
    61    33     6    1
    62    33    58    1
    63    33    59    1
@<TRIPOS>MOLECULE
*****
 59 63 0 0 0
SMALL
GASTEIGER

@<TRIPOS>ATOM
      1 N          -6.3531   -1.3847   -0.0476 N.pl3   1  UNL11      -0.2515
      2 C          -5.6347   -0.1710    0.1407 C.2     1  UNL11       0.2546
      3 C          -6.0642    0.6885    1.0399 C.2     1  UNL11       0.0151
      4 C          -7.0276    1.0868    2.0815 C.3     1  UNL11      -0.0202
      5 C          -5.9065    2.0194    1.7586 C.3     1  UNL11      -0.0202
      6 N          -4.4817    0.0837   -0.6318 N.pl3   1  UNL11      -0.2241
      7 C          -4.1599    1.4831   -0.9217 C.3     1  UNL11       0.0818
      8 C          -2.9295    1.8103   -0.0965 C.3     1  UNL11      -0.0009
      9 C          -1.7116    1.1024   -0.6224 C.3     1  UNL11       0.0185
     10 N          -1.6309   -0.1963   -0.0098 N.am    1  UNL11      -0.2937
     11 C          -0.4756   -0.4501    0.7517 C.2     1  UNL11       0.2495
     12 O          -0.2947   -1.5671    1.3261 O.2     1  UNL11      -0.2699
     13 C           0.6020    0.5279    0.9475 C.ar    1  UNL11       0.0723
     14 C           1.9289    0.1095    1.1303 C.ar    1  UNL11      -0.0433
     15 C           2.9529    0.9919    1.3212 C.ar    1  UNL11      -0.0405
     16 C           4.3263    0.5302    1.5213 C.3     1  UNL11       0.0211
     17 C           5.1384    0.3796    0.2999 C.2     1  UNL11       0.1192
     18 N           5.3763    1.4654   -0.4908 N.2     1  UNL11      -0.0073
     19 N           6.1374    1.3452   -1.5421 N.am    1  UNL11      -0.0356
     20 C           6.7237    0.2116   -1.9242 C.2     1  UNL11       0.4383
     21 O           7.4675    0.1208   -2.9612 O.2     1  UNL11      -0.2116
     22 C           6.5224   -0.9106   -1.1740 C.ar    1  UNL11       0.1004
     23 C           7.1017   -2.1048   -1.5451 C.ar    1  UNL11      -0.0441
     24 C           6.8832   -3.2365   -0.7926 C.ar    1  UNL11      -0.0608
     25 C           6.0875   -3.1731    0.3269 C.ar    1  UNL11      -0.0611
     26 C           5.5115   -1.9782    0.6939 C.ar    1  UNL11      -0.0518
     27 C           5.7094   -0.8076   -0.0411 C.ar    1  UNL11       0.0192
     28 C           2.6188    2.3409    1.3255 C.ar    1  UNL11      -0.0555
     29 C           1.3217    2.7558    1.1472 C.ar    1  UNL11      -0.0254
     30 C           0.2880    1.8528    0.9544 C.ar    1  UNL11       0.1355
     31 F          -0.9908    2.2563    0.7782 F       1  UNL11      -0.2047
     32 C          -2.5805   -1.2740   -0.0810 C.3     1  UNL11       0.0510
     33 C          -3.6696   -1.0231   -1.0968 C.3     1  UNL11       0.0960
     34 H          -6.6449   -1.6827   -1.0232 H       1  UNL11       0.2881
     35 H          -6.6293   -2.0345    0.7122 H       1  UNL11       0.2881
     36 H          -7.0073    0.6004    3.0800 H       1  UNL11       0.0316
     37 H          -8.0355    1.4497    1.7782 H       1  UNL11       0.0316
     38 H          -6.1289    2.9293    1.1449 H       1  UNL11       0.0316
     39 H          -5.0722    2.0966    2.4891 H       1  UNL11       0.0316
     40 H          -4.9806    2.1232   -0.5478 H       1  UNL11       0.0726
     41 H          -3.9719    1.6541   -1.9968 H       1  UNL11       0.0726
     42 H          -3.1586    1.5556    0.9503 H       1  UNL11       0.0317
     43 H          -2.7431    2.8935   -0.1692 H       1  UNL11       0.0317
     44 H          -1.7787    0.9279   -1.7305 H       1  UNL11       0.0466
     45 H          -0.8072    1.7195   -0.4380 H       1  UNL11       0.0466
     46 H           2.0614   -0.9775    1.0912 H       1  UNL11       0.0629
     47 H           4.3035   -0.4698    2.0537 H       1  UNL11       0.0379
     48 H           4.8417    1.2176    2.2131 H       1  UNL11       0.0379
     49 H           6.3429    2.1834   -2.1771 H       1  UNL11       0.4829
     50 H           7.7346   -2.1393   -2.4418 H       1  UNL11       0.0627
     51 H           7.3305   -4.1576   -1.0793 H       1  UNL11       0.0618
     52 H           5.9187   -4.0619    0.9133 H       1  UNL11       0.0618
     53 H           4.8792   -1.9330    1.5496 H       1  UNL11       0.0624
     54 H           3.4076    3.0487    1.4734 H       1  UNL11       0.0621
     55 H           1.0513    3.8033    1.1485 H       1  UNL11       0.0646
     56 H          -2.0553   -2.2295   -0.3471 H       1  UNL11       0.0502
     57 H          -3.0954   -1.4287    0.9096 H       1  UNL11       0.0502
     58 H          -4.2885   -1.9379   -1.1793 H       1  UNL11       0.0742
     59 H          -3.2092   -0.7832   -2.0983 H       1  UNL11       0.0742
@<TRIPOS>BOND
     1     1     2    1
     2     1    34    1
     3     1    35    1
     4     2     3    2
     5     2     6    1
     6     3     4    1
     7     4     5    1
     8     4    36    1
     9     4    37    1
    10     5     3    1
    11     5    38    1
    12     5    39    1
    13     6     7    1
    14     7     8    1
    15     7    40    1
    16     7    41    1
    17     8     9    1
    18     8    42    1
    19     8    43    1
    20     9    10    1
    21     9    44    1
    22     9    45    1
    23    10    11   am
    24    10    32    1
    25    11    12    2
    26    11    13    1
    27    13    14   ar
    28    14    15   ar
    29    14    46    1
    30    15    16    1
    31    15    28   ar
    32    16    17    1
    33    16    47    1
    34    16    48    1
    35    17    18    2
    36    18    19    1
    37    19    20   am
    38    19    49    1
    39    20    21    2
    40    20    22    1
    41    22    23   ar
    42    23    24   ar
    43    23    50    1
    44    24    25   ar
    45    24    51    1
    46    25    26   ar
    47    25    52    1
    48    26    27   ar
    49    26    53    1
    50    27    17    1
    51    27    22   ar
    52    28    29   ar
    53    28    54    1
    54    29    30   ar
    55    29    55    1
    56    30    31    1
    57    30    13   ar
    58    32    33    1
    59    32    56    1
    60    32    57    1
    61    33     6    1
    62    33    58    1
    63    33    59    1
@<TRIPOS>MOLECULE
*****
 59 63 0 0 0
SMALL
GASTEIGER

@<TRIPOS>ATOM
      1 N          -6.4380    0.9162    0.5846 N.pl3   1  UNL11      -0.2515
      2 C          -5.6347   -0.1710    0.1407 C.2     1  UNL11       0.2546
      3 C          -5.9917   -1.3967    0.4605 C.2     1  UNL11       0.0151
      4 C          -6.9119   -2.3364    1.1251 C.3     1  UNL11      -0.0202
      5 C          -5.7309   -2.8937    0.4002 C.3     1  UNL11      -0.0202
      6 N          -4.4817    0.0837   -0.6318 N.pl3   1  UNL11      -0.2241
      7 C          -4.1599    1.4831   -0.9217 C.3     1  UNL11       0.0818
      8 C          -2.9295    1.8103   -0.0965 C.3     1  UNL11      -0.0009
      9 C          -1.7116    1.1024   -0.6224 C.3     1  UNL11       0.0185
     10 N          -1.6309   -0.1963   -0.0098 N.am    1  UNL11      -0.2937
     11 C          -0.4756   -0.4501    0.7517 C.2     1  UNL11       0.2495
     12 O          -0.2947   -1.5671    1.3261 O.2     1  UNL11      -0.2699
     13 C           0.6020    0.5279    0.9475 C.ar    1  UNL11       0.0723
     14 C           1.9289    0.1095    1.1303 C.ar    1  UNL11      -0.0433
     15 C           2.9529    0.9919    1.3212 C.ar    1  UNL11      -0.0405
     16 C           4.3263    0.5302    1.5213 C.3     1  UNL11       0.0211
     17 C           5.1776    1.3905    2.3634 C.2     1  UNL11       0.1192
     18 N           5.7232    0.8871    3.5078 N.2     1  UNL11      -0.0073
     19 N           6.5184    1.6297    4.2257 N.am    1  UNL11      -0.0356
     20 C           6.8557    2.8833    3.9266 C.2     1  UNL11       0.4383
     21 O           7.6397    3.5907    4.6489 O.2     1  UNL11      -0.2116
     22 C           6.3404    3.4436    2.7938 C.ar    1  UNL11       0.1004
     23 C           6.6560    4.7425    2.4584 C.ar    1  UNL11      -0.0441
     24 C           6.1216    5.3069    1.3223 C.ar    1  UNL11      -0.0608
     25 C           5.2742    4.5741    0.5253 C.ar    1  UNL11      -0.0611
     26 C           4.9623    3.2770    0.8641 C.ar    1  UNL11      -0.0518
     27 C           5.4843    2.6673    2.0066 C.ar    1  UNL11       0.0192
     28 C           2.6188    2.3409    1.3255 C.ar    1  UNL11      -0.0555
     29 C           1.3217    2.7558    1.1472 C.ar    1  UNL11      -0.0254
     30 C           0.2880    1.8528    0.9544 C.ar    1  UNL11       0.1355
     31 F          -0.9908    2.2563    0.7782 F       1  UNL11      -0.2047
     32 C          -2.5805   -1.2740   -0.0810 C.3     1  UNL11       0.0510
     33 C          -3.6696   -1.0231   -1.0968 C.3     1  UNL11       0.0960
     34 H          -5.9895    1.7383    1.0834 H       1  UNL11       0.2881
     35 H          -7.4655    0.9843    0.4599 H       1  UNL11       0.2881
     36 H          -7.9134   -2.5425    0.6909 H       1  UNL11       0.0316
     37 H          -6.8707   -2.4446    2.2324 H       1  UNL11       0.0316
     38 H          -4.8583   -3.2568    1.0009 H       1  UNL11       0.0316
     39 H          -5.9126   -3.3933   -0.5760 H       1  UNL11       0.0316
     40 H          -4.9806    2.1232   -0.5478 H       1  UNL11       0.0726
     41 H          -3.9719    1.6541   -1.9968 H       1  UNL11       0.0726
     42 H          -3.1586    1.5556    0.9503 H       1  UNL11       0.0317
     43 H          -2.7431    2.8935   -0.1692 H       1  UNL11       0.0317
     44 H          -1.7787    0.9279   -1.7305 H       1  UNL11       0.0466
     45 H          -0.8072    1.7195   -0.4380 H       1  UNL11       0.0466
     46 H           2.0614   -0.9775    1.0912 H       1  UNL11       0.0629
     47 H           4.8276    0.4208    0.5109 H       1  UNL11       0.0379
     48 H           4.3074   -0.4862    1.9493 H       1  UNL11       0.0379
     49 H           6.9628    1.2568    5.1266 H       1  UNL11       0.4829
     50 H           7.3342    5.3149    3.1051 H       1  UNL11       0.0627
     51 H           6.3655    6.3092    1.0639 H       1  UNL11       0.0618
     52 H           4.8577    5.0201   -0.3634 H       1  UNL11       0.0618
     53 H           4.2905    2.7157    0.2577 H       1  UNL11       0.0624
     54 H           3.4076    3.0487    1.4734 H       1  UNL11       0.0621
     55 H           1.0513    3.8033    1.1485 H       1  UNL11       0.0646
     56 H          -2.0553   -2.2295   -0.3471 H       1  UNL11       0.0502
     57 H          -3.0954   -1.4287    0.9096 H       1  UNL11       0.0502
     58 H          -4.2885   -1.9379   -1.1793 H       1  UNL11       0.0742
     59 H          -3.2092   -0.7832   -2.0983 H       1  UNL11       0.0742
@<TRIPOS>BOND
     1     1     2    1
     2     1    34    1
     3     1    35    1
     4     2     3    2
     5     2     6    1
     6     3     4    1
     7     4     5    1
     8     4    36    1
     9     4    37    1
    10     5     3    1
    11     5    38    1
    12     5    39    1
    13     6     7    1
    14     7     8    1
    15     7    40    1
    16     7    41    1
    17     8     9    1
    18     8    42    1
    19     8    43    1
    20     9    10    1
    21     9    44    1
    22     9    45    1
    23    10    11   am
    24    10    32    1
    25    11    12    2
    26    11    13    1
    27    13    14   ar
    28    14    15   ar
    29    14    46    1
    30    15    16    1
    31    15    28   ar
    32    16    17    1
    33    16    47    1
    34    16    48    1
    35    17    18    2
    36    18    19    1
    37    19    20   am
    38    19    49    1
    39    20    21    2
    40    20    22    1
    41    22    23   ar
    42    23    24   ar
    43    23    50    1
    44    24    25   ar
    45    24    51    1
    46    25    26   ar
    47    25    52    1
    48    26    27   ar
    49    26    53    1
    50    27    17    1
    51    27    22   ar
    52    28    29   ar
    53    28    54    1
    54    29    30   ar
    55    29    55    1
    56    30    31    1
    57    30    13   ar
    58    32    33    1
    59    32    56    1
    60    32    57    1
    61    33     6    1
    62    33    58    1
    63    33    59    1
@<TRIPOS>MOLECULE
*****
 59 63 0 0 0
SMALL
GASTEIGER

@<TRIPOS>ATOM
      1 N          -6.6798   -0.9718   -0.3989 N.pl3   1  UNL11      -0.2515
      2 C          -5.6347   -0.1710    0.1407 C.2     1  UNL11       0.2546
      3 C          -5.7685    0.3125    1.3573 C.2     1  UNL11       0.0151
      4 C          -6.5424    0.4682    2.6017 C.3     1  UNL11      -0.0202
      5 C          -5.2094    1.1355    2.5075 C.3     1  UNL11      -0.0202
      6 N          -4.4817    0.0837   -0.6318 N.pl3   1  UNL11      -0.2241
      7 C          -4.1599    1.4831   -0.9217 C.3     1  UNL11       0.0818
      8 C          -2.9295    1.8103   -0.0965 C.3     1  UNL11      -0.0009
      9 C          -1.7116    1.1024   -0.6224 C.3     1  UNL11       0.0185
     10 N          -1.6309   -0.1963   -0.0098 N.am    1  UNL11      -0.2937
     11 C          -0.4756   -0.4501    0.7517 C.2     1  UNL11       0.2495
     12 O          -0.2947   -1.5671    1.3261 O.2     1  UNL11      -0.2699
     13 C           0.6020    0.5279    0.9475 C.ar    1  UNL11       0.0723
     14 C           0.8843    1.4930   -0.0313 C.ar    1  UNL11      -0.0433
     15 C           1.8828    2.4121    0.1164 C.ar    1  UNL11      -0.0405
     16 C           2.1653    3.4008   -0.9238 C.3     1  UNL11       0.0211
     17 C           1.8617    2.9851   -2.3055 C.2     1  UNL11       0.1192
     18 N           0.5823    2.6560   -2.6457 N.2     1  UNL11      -0.0073
     19 N           0.3025    2.3393   -3.8788 N.am    1  UNL11      -0.0356
     20 C           1.1913    2.3082   -4.8707 C.2     1  UNL11       0.4383
     21 O           0.8899    1.9942   -6.0739 O.2     1  UNL11      -0.2116
     22 C           2.4890    2.6265   -4.5925 C.ar    1  UNL11       0.1004
     23 C           3.4394    2.5928   -5.5899 C.ar    1  UNL11      -0.0441
     24 C           4.7494    2.9007   -5.3001 C.ar    1  UNL11      -0.0608
     25 C           5.1067    3.2406   -4.0167 C.ar    1  UNL11      -0.0611
     26 C           4.1539    3.2734   -3.0239 C.ar    1  UNL11      -0.0518
     27 C           2.8147    2.9696   -3.2767 C.ar    1  UNL11       0.0192
     28 C           2.6164    2.3496    1.2951 C.ar    1  UNL11      -0.0555
     29 C           2.3443    1.4070    2.2563 C.ar    1  UNL11      -0.0254
     30 C           1.3288    0.4771    2.0978 C.ar    1  UNL11       0.1355
     31 F           1.0568   -0.4529    3.0413 F       1  UNL11      -0.2047
     32 C          -2.5805   -1.2740   -0.0810 C.3     1  UNL11       0.0510
     33 C          -3.6696   -1.0231   -1.0968 C.3     1  UNL11       0.0960
     34 H          -7.0753   -0.7517   -1.3586 H       1  UNL11       0.2881
     35 H          -7.1091   -1.7868    0.0779 H       1  UNL11       0.2881
     36 H          -6.6333   -0.3782    3.3154 H       1  UNL11       0.0316
     37 H          -7.4105    1.1651    2.6172 H       1  UNL11       0.0316
     38 H          -5.1770    2.2421    2.3389 H       1  UNL11       0.0316
     39 H          -4.3665    0.6883    3.0778 H       1  UNL11       0.0316
     40 H          -4.9806    2.1232   -0.5478 H       1  UNL11       0.0726
     41 H          -3.9719    1.6541   -1.9968 H       1  UNL11       0.0726
     42 H          -3.1586    1.5556    0.9503 H       1  UNL11       0.0317
     43 H          -2.7431    2.8935   -0.1692 H       1  UNL11       0.0317
     44 H          -1.7787    0.9279   -1.7305 H       1  UNL11       0.0466
     45 H          -0.8072    1.7195   -0.4380 H       1  UNL11       0.0466
     46 H           0.2254    1.4453   -0.9054 H       1  UNL11       0.0629
     47 H           3.2617    3.6826   -0.8745 H       1  UNL11       0.0379
     48 H           1.6148    4.3299   -0.6988 H       1  UNL11       0.0379
     49 H          -0.6949    2.0806   -4.1726 H       1  UNL11       0.4829
     50 H           3.1385    2.3193   -6.6100 H       1  UNL11       0.0627
     51 H           5.4823    2.8746   -6.0701 H       1  UNL11       0.0618
     52 H           6.1338    3.4808   -3.7940 H       1  UNL11       0.0618
     53 H           4.4338    3.5174   -2.0258 H       1  UNL11       0.0624
     54 H           3.4035    3.0618    1.4301 H       1  UNL11       0.0621
     55 H           2.9091    1.3501    3.1772 H       1  UNL11       0.0646
     56 H          -2.0553   -2.2295   -0.3471 H       1  UNL11       0.0502
     57 H          -3.0954   -1.4287    0.9096 H       1  UNL11       0.0502
     58 H          -4.2885   -1.9379   -1.1793 H       1  UNL11       0.0742
     59 H          -3.2092   -0.7832   -2.0983 H       1  UNL11       0.0742
@<TRIPOS>BOND
     1     1     2    1
     2     1    34    1
     3     1    35    1
     4     2     3    2
     5     2     6    1
     6     3     4    1
     7     4     5    1
     8     4    36    1
     9     4    37    1
    10     5     3    1
    11     5    38    1
    12     5    39    1
    13     6     7    1
    14     7     8    1
    15     7    40    1
    16     7    41    1
    17     8     9    1
    18     8    42    1
    19     8    43    1
    20     9    10    1
    21     9    44    1
    22     9    45    1
    23    10    11   am
    24    10    32    1
    25    11    12    2
    26    11    13    1
    27    13    14   ar
    28    14    15   ar
    29    14    46    1
    30    15    16    1
    31    15    28   ar
    32    16    17    1
    33    16    47    1
    34    16    48    1
    35    17    18    2
    36    18    19    1
    37    19    20   am
    38    19    49    1
    39    20    21    2
    40    20    22    1
    41    22    23   ar
    42    23    24   ar
    43    23    50    1
    44    24    25   ar
    45    24    51    1
    46    25    26   ar
    47    25    52    1
    48    26    27   ar
    49    26    53    1
    50    27    17    1
    51    27    22   ar
    52    28    29   ar
    53    28    54    1
    54    29    30   ar
    55    29    55    1
    56    30    31    1
    57    30    13   ar
    58    32    33    1
    59    32    56    1
    60    32    57    1
    61    33     6    1
    62    33    58    1
    63    33    59    1
@<TRIPOS>MOLECULE
*****
 59 63 0 0 0
SMALL
GASTEIGER

@<TRIPOS>ATOM
      1 N          -1.5849    0.7254   -4.1124 N.pl3   1  UNL11      -0.2515
      2 C          -2.9010    0.9653   -3.6280 C.2     1  UNL11       0.2546
      3 C          -3.7576    1.5970   -4.4021 C.2     1  UNL11       0.0151
      4 C          -4.0934    2.2657   -5.6717 C.3     1  UNL11      -0.0202
      5 C          -5.1491    2.1708   -4.6193 C.3     1  UNL11      -0.0202
      6 N          -3.2611    0.5208   -2.3380 N.pl3   1  UNL11      -0.2241
      7 C          -3.8125   -0.8312   -2.2201 C.3     1  UNL11       0.0818
      8 C          -2.7424   -1.6626   -1.5378 C.3     1  UNL11      -0.0009
      9 C          -2.5812   -1.2724   -0.0946 C.3     1  UNL11       0.0185
     10 N          -1.6309   -0.1963   -0.0098 N.am    1  UNL11      -0.2937
     11 C          -0.4756   -0.4501    0.7517 C.2     1  UNL11       0.2495
     12 O          -0.2947   -1.5671    1.3261 O.2     1  UNL11      -0.2699
     13 C           0.6020    0.5279    0.9475 C.ar    1  UNL11       0.0723
     14 C           0.8843    1.4930   -0.0313 C.ar    1  UNL11      -0.0433
     15 C           1.8828    2.4121    0.1164 C.ar    1  UNL11      -0.0405
     16 C           2.1653    3.4008   -0.9238 C.3     1  UNL11       0.0211
     17 C           1.8617    2.9851   -2.3055 C.2     1  UNL11       0.1192
     18 N           2.5994    3.4851   -3.3383 N.2     1  UNL11      -0.0073
     19 N           2.3670    3.0786   -4.5548 N.am    1  UNL11      -0.0356
     20 C           1.4369    2.1847   -4.8875 C.2     1  UNL11       0.4383
     21 O           1.2296    1.8020   -6.0907 O.2     1  UNL11      -0.2116
     22 C           0.6651    1.6488   -3.8977 C.ar    1  UNL11       0.1004
     23 C          -0.3160    0.7310   -4.2047 C.ar    1  UNL11      -0.0441
     24 C          -1.1010    0.2050   -3.2038 C.ar    1  UNL11      -0.0608
     25 C          -0.9049    0.5966   -1.9005 C.ar    1  UNL11      -0.0611
     26 C           0.0765    1.5132   -1.5986 C.ar    1  UNL11      -0.0518
     27 C           0.8949    2.0691   -2.5840 C.ar    1  UNL11       0.0192
     28 C           2.6164    2.3496    1.2951 C.ar    1  UNL11      -0.0555
     29 C           2.3443    1.4070    2.2563 C.ar    1  UNL11      -0.0254
     30 C           1.3288    0.4771    2.0978 C.ar    1  UNL11       0.1355
     31 F           1.0568   -0.4529    3.0413 F       1  UNL11      -0.2047
     32 C          -1.7135    1.1121   -0.6011 C.3     1  UNL11       0.0510
     33 C          -3.0715    1.3956   -1.1981 C.3     1  UNL11       0.0960
     34 H          -0.7451    0.9924   -3.5215 H       1  UNL11       0.2881
     35 H          -1.3594    0.2941   -5.0284 H       1  UNL11       0.2881
     36 H          -4.2478    1.6693   -6.5961 H       1  UNL11       0.0316
     37 H          -3.7156    3.2961   -5.8587 H       1  UNL11       0.0316
     38 H          -5.3926    3.0869   -4.0231 H       1  UNL11       0.0316
     39 H          -5.9715    1.4397   -4.7772 H       1  UNL11       0.0316
     40 H          -3.9509   -1.2501   -3.2342 H       1  UNL11       0.0726
     41 H          -4.7546   -0.8489   -1.6435 H       1  UNL11       0.0726
     42 H          -1.8156   -1.5490   -2.1219 H       1  UNL11       0.0317
     43 H          -3.0560   -2.7182   -1.5648 H       1  UNL11       0.0317
     44 H          -3.5417   -0.8838    0.3404 H       1  UNL11       0.0466
     45 H          -2.2801   -2.1575    0.5044 H       1  UNL11       0.0466
     46 H           0.2254    1.4453   -0.9054 H       1  UNL11       0.0629
     47 H           3.2617    3.6826   -0.8745 H       1  UNL11       0.0379
     48 H           1.6148    4.3299   -0.6988 H       1  UNL11       0.0379
     49 H           2.9347    3.4528   -5.3829 H       1  UNL11       0.4829
     50 H          -0.4604    0.4283   -5.2503 H       1  UNL11       0.0627
     51 H          -1.8578   -0.5033   -3.4412 H       1  UNL11       0.0618
     52 H          -1.5221    0.1824   -1.1197 H       1  UNL11       0.0618
     53 H           0.2155    1.8316   -0.5919 H       1  UNL11       0.0624
     54 H           3.4035    3.0618    1.4301 H       1  UNL11       0.0621
     55 H           2.9091    1.3501    3.1772 H       1  UNL11       0.0646
     56 H          -1.4907    1.8955    0.1711 H       1  UNL11       0.0502
     57 H          -0.9655    1.2292   -1.4360 H       1  UNL11       0.0502
     58 H          -3.0960    2.4536   -1.5248 H       1  UNL11       0.0742
     59 H          -3.8730    1.2174   -0.4244 H       1  UNL11       0.0742
@<TRIPOS>BOND
     1     1     2    1
     2     1    34    1
     3     1    35    1
     4     2     3    2
     5     2     6    1
     6     3     4    1
     7     4     5    1
     8     4    36    1
     9     4    37    1
    10     5     3    1
    11     5    38    1
    12     5    39    1
    13     6     7    1
    14     7     8    1
    15     7    40    1
    16     7    41    1
    17     8     9    1
    18     8    42    1
    19     8    43    1
    20     9    10    1
    21     9    44    1
    22     9    45    1
    23    10    11   am
    24    10    32    1
    25    11    12    2
    26    11    13    1
    27    13    14   ar
    28    14    15   ar
    29    14    46    1
    30    15    16    1
    31    15    28   ar
    32    16    17    1
    33    16    47    1
    34    16    48    1
    35    17    18    2
    36    18    19    1
    37    19    20   am
    38    19    49    1
    39    20    21    2
    40    20    22    1
    41    22    23   ar
    42    23    24   ar
    43    23    50    1
    44    24    25   ar
    45    24    51    1
    46    25    26   ar
    47    25    52    1
    48    26    27   ar
    49    26    53    1
    50    27    17    1
    51    27    22   ar
    52    28    29   ar
    53    28    54    1
    54    29    30   ar
    55    29    55    1
    56    30    31    1
    57    30    13   ar
    58    32    33    1
    59    32    56    1
    60    32    57    1
    61    33     6    1
    62    33    58    1
    63    33    59    1
@<TRIPOS>MOLECULE
*****
 59 63 0 0 0
SMALL
GASTEIGER

@<TRIPOS>ATOM
      1 N          -3.8629    1.6349   -4.4349 N.pl3   1  UNL11      -0.2515
      2 C          -2.9010    0.9653   -3.6280 C.2     1  UNL11       0.2546
      3 C          -1.6893    0.7792   -4.1066 C.2     1  UNL11       0.0151
      4 C          -0.6949    0.9282   -5.1840 C.3     1  UNL11      -0.0202
      5 C          -0.2799    0.2371   -3.9265 C.3     1  UNL11      -0.0202
      6 N          -3.2611    0.5208   -2.3380 N.pl3   1  UNL11      -0.2241
      7 C          -3.8125   -0.8312   -2.2201 C.3     1  UNL11       0.0818
      8 C          -2.7424   -1.6626   -1.5378 C.3     1  UNL11      -0.0009
      9 C          -2.5812   -1.2724   -0.0946 C.3     1  UNL11       0.0185
     10 N          -1.6309   -0.1963   -0.0098 N.am    1  UNL11      -0.2937
     11 C          -0.4756   -0.4501    0.7517 C.2     1  UNL11       0.2495
     12 O          -0.2947   -1.5671    1.3261 O.2     1  UNL11      -0.2699
     13 C           0.6020    0.5279    0.9475 C.ar    1  UNL11       0.0723
     14 C           1.7365    0.2059    1.7080 C.ar    1  UNL11      -0.0433
     15 C           2.7528    1.0935    1.9147 C.ar    1  UNL11      -0.0405
     16 C           3.9199    0.7377    2.7214 C.3     1  UNL11       0.0211
     17 C           5.2210    0.7945    2.0301 C.2     1  UNL11       0.1192
     18 N           6.2244   -0.0481    2.4096 N.2     1  UNL11      -0.0073
     19 N           7.3574   -0.0356    1.7651 N.am    1  UNL11      -0.0356
     20 C           7.6288    0.7585    0.7304 C.2     1  UNL11       0.4383
     21 O           8.7501    0.7501    0.1143 O.2     1  UNL11      -0.2116
     22 C           6.6646    1.6253    0.3043 C.ar    1  UNL11       0.1004
     23 C           6.9132    2.4716   -0.7546 C.ar    1  UNL11      -0.0441
     24 C           5.9419    3.3538   -1.1705 C.ar    1  UNL11      -0.0608
     25 C           4.7266    3.3891   -0.5286 C.ar    1  UNL11      -0.0611
     26 C           4.4827    2.5416    0.5282 C.ar    1  UNL11      -0.0518
     27 C           5.4403    1.6312    0.9797 C.ar    1  UNL11       0.0192
     28 C           2.6129    2.3465    1.3301 C.ar    1  UNL11      -0.0555
     29 C           1.5045    2.6669    0.5850 C.ar    1  UNL11      -0.0254
     30 C           0.4769    1.7595    0.3805 C.ar    1  UNL11       0.1355
     31 F          -0.6164    2.0701   -0.3525 F       1  UNL11      -0.2047
     32 C          -1.7135    1.1121   -0.6011 C.3     1  UNL11       0.0510
     33 C          -3.0715    1.3956   -1.1981 C.3     1  UNL11       0.0960
     34 H          -4.8207    1.2042   -4.5860 H       1  UNL11       0.2881
     35 H          -3.7095    2.5446   -4.9089 H       1  UNL11       0.2881
     36 H          -0.2356    1.9183   -5.3904 H       1  UNL11       0.0316
     37 H          -0.7598    0.2671   -6.0774 H       1  UNL11       0.0316
     38 H          -0.1864   -0.8788   -3.9364 H       1  UNL11       0.0316
     39 H           0.3827    0.7915   -3.2270 H       1  UNL11       0.0316
     40 H          -3.9509   -1.2501   -3.2342 H       1  UNL11       0.0726
     41 H          -4.7546   -0.8489   -1.6435 H       1  UNL11       0.0726
     42 H          -1.8156   -1.5490   -2.1219 H       1  UNL11       0.0317
     43 H          -3.0560   -2.7182   -1.5648 H       1  UNL11       0.0317
     44 H          -3.5417   -0.8838    0.3404 H       1  UNL11       0.0466
     45 H          -2.2801   -2.1575    0.5044 H       1  UNL11       0.0466
     46 H           1.7321   -0.8169    2.1012 H       1  UNL11       0.0629
     47 H           3.7815   -0.3125    3.1241 H       1  UNL11       0.0379
     48 H           3.9568    1.3888    3.6110 H       1  UNL11       0.0379
     49 H           8.1598   -0.6899    2.0408 H       1  UNL11       0.4829
     50 H           7.8888    2.4315   -1.2570 H       1  UNL11       0.0627
     51 H           6.1342    4.0066   -1.9877 H       1  UNL11       0.0618
     52 H           3.9687    4.0818   -0.8574 H       1  UNL11       0.0618
     53 H           3.5487    2.5824    1.0381 H       1  UNL11       0.0624
     54 H           3.3991    3.0566    1.4803 H       1  UNL11       0.0621
     55 H           1.3861    3.6391    0.1255 H       1  UNL11       0.0646
     56 H          -1.4907    1.8955    0.1711 H       1  UNL11       0.0502
     57 H          -0.9655    1.2292   -1.4360 H       1  UNL11       0.0502
     58 H          -3.0960    2.4536   -1.5248 H       1  UNL11       0.0742
     59 H          -3.8730    1.2174   -0.4244 H       1  UNL11       0.0742
@<TRIPOS>BOND
     1     1     2    1
     2     1    34    1
     3     1    35    1
     4     2     3    2
     5     2     6    1
     6     3     4    1
     7     4     5    1
     8     4    36    1
     9     4    37    1
    10     5     3    1
    11     5    38    1
    12     5    39    1
    13     6     7    1
    14     7     8    1
    15     7    40    1
    16     7    41    1
    17     8     9    1
    18     8    42    1
    19     8    43    1
    20     9    10    1
    21     9    44    1
    22     9    45    1
    23    10    11   am
    24    10    32    1
    25    11    12    2
    26    11    13    1
    27    13    14   ar
    28    14    15   ar
    29    14    46    1
    30    15    16    1
    31    15    28   ar
    32    16    17    1
    33    16    47    1
    34    16    48    1
    35    17    18    2
    36    18    19    1
    37    19    20   am
    38    19    49    1
    39    20    21    2
    40    20    22    1
    41    22    23   ar
    42    23    24   ar
    43    23    50    1
    44    24    25   ar
    45    24    51    1
    46    25    26   ar
    47    25    52    1
    48    26    27   ar
    49    26    53    1
    50    27    17    1
    51    27    22   ar
    52    28    29   ar
    53    28    54    1
    54    29    30   ar
    55    29    55    1
    56    30    31    1
    57    30    13   ar
    58    32    33    1
    59    32    56    1
    60    32    57    1
    61    33     6    1
    62    33    58    1
    63    33    59    1
@<TRIPOS>MOLECULE
*****
 59 63 0 0 0
SMALL
GASTEIGER

@<TRIPOS>ATOM
      1 N          -3.5146    2.1305   -4.1669 N.pl3   1  UNL11      -0.2515
      2 C          -2.9010    0.9653   -3.6280 C.2     1  UNL11       0.2546
      3 C          -2.0034    0.3285   -4.3496 C.2     1  UNL11       0.0151
      4 C          -1.2094    0.1870   -5.5829 C.3     1  UNL11      -0.0202
      5 C          -1.0216   -0.8232   -4.4989 C.3     1  UNL11      -0.0202
      6 N          -3.2611    0.5208   -2.3380 N.pl3   1  UNL11      -0.2241
      7 C          -3.8125   -0.8312   -2.2201 C.3     1  UNL11       0.0818
      8 C          -2.7424   -1.6626   -1.5378 C.3     1  UNL11      -0.0009
      9 C          -2.5812   -1.2724   -0.0946 C.3     1  UNL11       0.0185
     10 N          -1.6309   -0.1963   -0.0098 N.am    1  UNL11      -0.2937
     11 C          -0.4756   -0.4501    0.7517 C.2     1  UNL11       0.2495
     12 O          -0.2947   -1.5671    1.3261 O.2     1  UNL11      -0.2699
     13 C           0.6020    0.5279    0.9475 C.ar    1  UNL11       0.0723
     14 C           0.8843    1.4930   -0.0313 C.ar    1  UNL11      -0.0433
     15 C           1.8828    2.4121    0.1164 C.ar    1  UNL11      -0.0405
     16 C           2.1653    3.4008   -0.9238 C.3     1  UNL11       0.0211
     17 C           1.8617    2.9851   -2.3055 C.2     1  UNL11       0.1192
     18 N           1.4892    3.9209   -3.2255 N.2     1  UNL11      -0.0073
     19 N           1.2716    3.5630   -4.4599 N.am    1  UNL11      -0.0356
     20 C           1.3859    2.3165   -4.9160 C.2     1  UNL11       0.4383
     21 O           1.1670    1.9918   -6.1340 O.2     1  UNL11      -0.2116
     22 C           1.7545    1.3347   -4.0425 C.ar    1  UNL11       0.1004
     23 C           1.8703    0.0312   -4.4746 C.ar    1  UNL11      -0.0441
     24 C           2.2283   -0.9570   -3.5857 C.ar    1  UNL11      -0.0608
     25 C           2.4688   -0.6416   -2.2692 C.ar    1  UNL11      -0.0611
     26 C           2.3523    0.6618   -1.8425 C.ar    1  UNL11      -0.0518
     27 C           1.9933    1.6933   -2.7123 C.ar    1  UNL11       0.0192
     28 C           2.6164    2.3496    1.2951 C.ar    1  UNL11      -0.0555
     29 C           2.3443    1.4070    2.2563 C.ar    1  UNL11      -0.0254
     30 C           1.3288    0.4771    2.0978 C.ar    1  UNL11       0.1355
     31 F           1.0568   -0.4529    3.0413 F       1  UNL11      -0.2047
     32 C          -1.7135    1.1121   -0.6011 C.3     1  UNL11       0.0510
     33 C          -3.0715    1.3956   -1.1981 C.3     1  UNL11       0.0960
     34 H          -4.5717    2.2223   -4.1657 H       1  UNL11       0.2881
     35 H          -3.0034    2.9341   -4.5776 H       1  UNL11       0.2881
     36 H          -0.3599    0.8736   -5.7851 H       1  UNL11       0.0316
     37 H          -1.7003   -0.2044   -6.5024 H       1  UNL11       0.0316
     38 H          -1.4810   -1.8363   -4.6277 H       1  UNL11       0.0316
     39 H          -0.0897   -0.7662   -3.8956 H       1  UNL11       0.0316
     40 H          -3.9509   -1.2501   -3.2342 H       1  UNL11       0.0726
     41 H          -4.7546   -0.8489   -1.6435 H       1  UNL11       0.0726
     42 H          -1.8156   -1.5490   -2.1219 H       1  UNL11       0.0317
     43 H          -3.0560   -2.7182   -1.5648 H       1  UNL11       0.0317
     44 H          -3.5417   -0.8838    0.3404 H       1  UNL11       0.0466
     45 H          -2.2801   -2.1575    0.5044 H       1  UNL11       0.0466
     46 H           0.2254    1.4453   -0.9054 H       1  UNL11       0.0629
     47 H           3.2617    3.6826   -0.8745 H       1  UNL11       0.0379
     48 H           1.6148    4.3299   -0.6988 H       1  UNL11       0.0379
     49 H           0.9818    4.2791   -5.2024 H       1  UNL11       0.4829
     50 H           1.6749   -0.2048   -5.5290 H       1  UNL11       0.0627
     51 H           2.3176   -1.9627   -3.9196 H       1  UNL11       0.0618
     52 H           2.7487   -1.4186   -1.5763 H       1  UNL11       0.0618
     53 H           2.5193    0.9033   -0.8188 H       1  UNL11       0.0624
     54 H           3.4035    3.0618    1.4301 H       1  UNL11       0.0621
     55 H           2.9091    1.3501    3.1772 H       1  UNL11       0.0646
     56 H          -1.4907    1.8955    0.1711 H       1  UNL11       0.0502
     57 H          -0.9655    1.2292   -1.4360 H       1  UNL11       0.0502
     58 H          -3.0960    2.4536   -1.5248 H       1  UNL11       0.0742
     59 H          -3.8730    1.2174   -0.4244 H       1  UNL11       0.0742
@<TRIPOS>BOND
     1     1     2    1
     2     1    34    1
     3     1    35    1
     4     2     3    2
     5     2     6    1
     6     3     4    1
     7     4     5    1
     8     4    36    1
     9     4    37    1
    10     5     3    1
    11     5    38    1
    12     5    39    1
    13     6     7    1
    14     7     8    1
    15     7    40    1
    16     7    41    1
    17     8     9    1
    18     8    42    1
    19     8    43    1
    20     9    10    1
    21     9    44    1
    22     9    45    1
    23    10    11   am
    24    10    32    1
    25    11    12    2
    26    11    13    1
    27    13    14   ar
    28    14    15   ar
    29    14    46    1
    30    15    16    1
    31    15    28   ar
    32    16    17    1
    33    16    47    1
    34    16    48    1
    35    17    18    2
    36    18    19    1
    37    19    20   am
    38    19    49    1
    39    20    21    2
    40    20    22    1
    41    22    23   ar
    42    23    24   ar
    43    23    50    1
    44    24    25   ar
    45    24    51    1
    46    25    26   ar
    47    25    52    1
    48    26    27   ar
    49    26    53    1
    50    27    17    1
    51    27    22   ar
    52    28    29   ar
    53    28    54    1
    54    29    30   ar
    55    29    55    1
    56    30    31    1
    57    30    13   ar
    58    32    33    1
    59    32    56    1
    60    32    57    1
    61    33     6    1
    62    33    58    1
    63    33    59    1
@<TRIPOS>MOLECULE
*****
 59 63 0 0 0
SMALL
GASTEIGER

@<TRIPOS>ATOM
      1 N          -6.6798   -0.9718   -0.3989 N.pl3   1  UNL11      -0.2515
      2 C          -5.6347   -0.1710    0.1407 C.2     1  UNL11       0.2546
      3 C          -5.7685    0.3125    1.3573 C.2     1  UNL11       0.0151
      4 C          -6.5424    0.4682    2.6017 C.3     1  UNL11      -0.0202
      5 C          -5.2094    1.1355    2.5075 C.3     1  UNL11      -0.0202
      6 N          -4.4817    0.0837   -0.6318 N.pl3   1  UNL11      -0.2241
      7 C          -4.1599    1.4831   -0.9217 C.3     1  UNL11       0.0818
      8 C          -2.9295    1.8103   -0.0965 C.3     1  UNL11      -0.0009
      9 C          -1.7116    1.1024   -0.6224 C.3     1  UNL11       0.0185
     10 N          -1.6309   -0.1963   -0.0098 N.am    1  UNL11      -0.2937
     11 C          -0.4756   -0.4501    0.7517 C.2     1  UNL11       0.2495
     12 O          -0.2947   -1.5671    1.3261 O.2     1  UNL11      -0.2699
     13 C           0.6020    0.5279    0.9475 C.ar    1  UNL11       0.0723
     14 C           0.8843    1.4930   -0.0313 C.ar    1  UNL11      -0.0433
     15 C           1.8828    2.4121    0.1164 C.ar    1  UNL11      -0.0405
     16 C           2.1653    3.4008   -0.9238 C.3     1  UNL11       0.0211
     17 C           3.5216    3.3581   -1.5004 C.2     1  UNL11       0.1192
     18 N           4.4167    2.4314   -1.0521 N.2     1  UNL11      -0.0073
     19 N           5.5985    2.3577   -1.5972 N.am    1  UNL11      -0.0356
     20 C           6.0220    3.1384   -2.5902 C.2     1  UNL11       0.4383
     21 O           7.1881    3.0446   -3.1084 O.2     1  UNL11      -0.2116
     22 C           5.1719    4.0865   -3.0811 C.ar    1  UNL11       0.1004
     23 C           5.5791    4.9213   -4.0992 C.ar    1  UNL11      -0.0441
     24 C           4.7223    5.8853   -4.5802 C.ar    1  UNL11      -0.0608
     25 C           3.4628    6.0134   -4.0438 C.ar    1  UNL11      -0.0611
     26 C           3.0603    5.1769   -3.0275 C.ar    1  UNL11      -0.0518
     27 C           3.8982    4.1857   -2.5127 C.ar    1  UNL11       0.0192
     28 C           2.6164    2.3496    1.2951 C.ar    1  UNL11      -0.0555
     29 C           2.3443    1.4070    2.2563 C.ar    1  UNL11      -0.0254
     30 C           1.3288    0.4771    2.0978 C.ar    1  UNL11       0.1355
     31 F           1.0568   -0.4529    3.0413 F       1  UNL11      -0.2047
     32 C          -2.5805   -1.2740   -0.0810 C.3     1  UNL11       0.0510
     33 C          -3.6696   -1.0231   -1.0968 C.3     1  UNL11       0.0960
     34 H          -7.0753   -0.7517   -1.3586 H       1  UNL11       0.2881
     35 H          -7.1091   -1.7868    0.0779 H       1  UNL11       0.2881
     36 H          -6.6333   -0.3782    3.3154 H       1  UNL11       0.0316
     37 H          -7.4105    1.1651    2.6172 H       1  UNL11       0.0316
     38 H          -5.1770    2.2421    2.3389 H       1  UNL11       0.0316
     39 H          -4.3665    0.6883    3.0778 H       1  UNL11       0.0316
     40 H          -4.9806    2.1232   -0.5478 H       1  UNL11       0.0726
     41 H          -3.9719    1.6541   -1.9968 H       1  UNL11       0.0726
     42 H          -3.1586    1.5556    0.9503 H       1  UNL11       0.0317
     43 H          -2.7431    2.8935   -0.1692 H       1  UNL11       0.0317
     44 H          -1.7787    0.9279   -1.7305 H       1  UNL11       0.0466
     45 H          -0.8072    1.7195   -0.4380 H       1  UNL11       0.0466
     46 H           0.2254    1.4453   -0.9054 H       1  UNL11       0.0629
     47 H           1.9961    4.4381   -0.5001 H       1  UNL11       0.0379
     48 H           1.4261    3.2930   -1.7355 H       1  UNL11       0.0379
     49 H           6.3183    1.6364   -1.2661 H       1  UNL11       0.4829
     50 H           6.5880    4.8066   -4.5171 H       1  UNL11       0.0627
     51 H           5.0369    6.5292   -5.3658 H       1  UNL11       0.0618
     52 H           2.7950    6.7698   -4.4233 H       1  UNL11       0.0618
     53 H           2.0921    5.2888   -2.5985 H       1  UNL11       0.0624
     54 H           3.4035    3.0618    1.4301 H       1  UNL11       0.0621
     55 H           2.9091    1.3501    3.1772 H       1  UNL11       0.0646
     56 H          -2.0553   -2.2295   -0.3471 H       1  UNL11       0.0502
     57 H          -3.0954   -1.4287    0.9096 H       1  UNL11       0.0502
     58 H          -4.2885   -1.9379   -1.1793 H       1  UNL11       0.0742
     59 H          -3.2092   -0.7832   -2.0983 H       1  UNL11       0.0742
@<TRIPOS>BOND
     1     1     2    1
     2     1    34    1
     3     1    35    1
     4     2     3    2
     5     2     6    1
     6     3     4    1
     7     4     5    1
     8     4    36    1
     9     4    37    1
    10     5     3    1
    11     5    38    1
    12     5    39    1
    13     6     7    1
    14     7     8    1
    15     7    40    1
    16     7    41    1
    17     8     9    1
    18     8    42    1
    19     8    43    1
    20     9    10    1
    21     9    44    1
    22     9    45    1
    23    10    11   am
    24    10    32    1
    25    11    12    2
    26    11    13    1
    27    13    14   ar
    28    14    15   ar
    29    14    46    1
    30    15    16    1
    31    15    28   ar
    32    16    17    1
    33    16    47    1
    34    16    48    1
    35    17    18    2
    36    18    19    1
    37    19    20   am
    38    19    49    1
    39    20    21    2
    40    20    22    1
    41    22    23   ar
    42    23    24   ar
    43    23    50    1
    44    24    25   ar
    45    24    51    1
    46    25    26   ar
    47    25    52    1
    48    26    27   ar
    49    26    53    1
    50    27    17    1
    51    27    22   ar
    52    28    29   ar
    53    28    54    1
    54    29    30   ar
    55    29    55    1
    56    30    31    1
    57    30    13   ar
    58    32    33    1
    59    32    56    1
    60    32    57    1
    61    33     6    1
    62    33    58    1
    63    33    59    1
@<TRIPOS>MOLECULE
*****
 59 63 0 0 0
SMALL
GASTEIGER

@<TRIPOS>ATOM
      1 N          -1.5497    1.3198   -3.8978 N.pl3   1  UNL11      -0.2515
      2 C          -2.9010    0.9653   -3.6280 C.2     1  UNL11       0.2546
      3 C          -3.7875    1.0576   -4.5963 C.2     1  UNL11       0.0151
      4 C          -4.1410    1.3797   -5.9902 C.3     1  UNL11      -0.0202
      5 C          -5.2217    0.9006   -5.0772 C.3     1  UNL11      -0.0202
      6 N          -3.2611    0.5208   -2.3380 N.pl3   1  UNL11      -0.2241
      7 C          -3.8125   -0.8312   -2.2201 C.3     1  UNL11       0.0818
      8 C          -2.7424   -1.6626   -1.5378 C.3     1  UNL11      -0.0009
      9 C          -2.5812   -1.2724   -0.0946 C.3     1  UNL11       0.0185
     10 N          -1.6309   -0.1963   -0.0098 N.am    1  UNL11      -0.2937
     11 C          -0.4756   -0.4501    0.7517 C.2     1  UNL11       0.2495
     12 O          -0.2947   -1.5671    1.3261 O.2     1  UNL11      -0.2699
     13 C           0.6020    0.5279    0.9475 C.ar    1  UNL11       0.0723
     14 C           0.8843    1.4930   -0.0313 C.ar    1  UNL11      -0.0433
     15 C           1.8828    2.4121    0.1164 C.ar    1  UNL11      -0.0405
     16 C           2.1653    3.4008   -0.9238 C.3     1  UNL11       0.0211
     17 C           1.8617    2.9851   -2.3055 C.2     1  UNL11       0.1192
     18 N           2.4770    1.8867   -2.8305 N.2     1  UNL11      -0.0073
     19 N           2.1706    1.4871   -4.0329 N.am    1  UNL11      -0.0356
     20 C           1.2761    2.0814   -4.8211 C.2     1  UNL11       0.4383
     21 O           0.9931    1.6678   -5.9984 O.2     1  UNL11      -0.2116
     22 C           0.6276    3.1869   -4.3522 C.ar    1  UNL11       0.1004
     23 C          -0.2950    3.8364   -5.1436 C.ar    1  UNL11      -0.0441
     24 C          -0.9351    4.9594   -4.6706 C.ar    1  UNL11      -0.0608
     25 C          -0.6525    5.4308   -3.4103 C.ar    1  UNL11      -0.0611
     26 C           0.2692    4.7785   -2.6233 C.ar    1  UNL11      -0.0518
     27 C           0.9389    3.6357   -3.0650 C.ar    1  UNL11       0.0192
     28 C           2.6164    2.3496    1.2951 C.ar    1  UNL11      -0.0555
     29 C           2.3443    1.4070    2.2563 C.ar    1  UNL11      -0.0254
     30 C           1.3288    0.4771    2.0978 C.ar    1  UNL11       0.1355
     31 F           1.0568   -0.4529    3.0413 F       1  UNL11      -0.2047
     32 C          -1.7135    1.1121   -0.6011 C.3     1  UNL11       0.0510
     33 C          -3.0715    1.3956   -1.1981 C.3     1  UNL11       0.0960
     34 H          -1.0408    1.9962   -3.2581 H       1  UNL11       0.2881
     35 H          -0.9907    0.9626   -4.6951 H       1  UNL11       0.2881
     36 H          -3.8409    0.7004   -6.8163 H       1  UNL11       0.0316
     37 H          -4.2296    2.4469   -6.2948 H       1  UNL11       0.0316
     38 H          -5.9511    1.6489   -4.6745 H       1  UNL11       0.0316
     39 H          -5.5911   -0.1387   -5.2149 H       1  UNL11       0.0316
     40 H          -3.9509   -1.2501   -3.2342 H       1  UNL11       0.0726
     41 H          -4.7546   -0.8489   -1.6435 H       1  UNL11       0.0726
     42 H          -1.8156   -1.5490   -2.1219 H       1  UNL11       0.0317
     43 H          -3.0560   -2.7182   -1.5648 H       1  UNL11       0.0317
     44 H          -3.5417   -0.8838    0.3404 H       1  UNL11       0.0466
     45 H          -2.2801   -2.1575    0.5044 H       1  UNL11       0.0466
     46 H           0.2254    1.4453   -0.9054 H       1  UNL11       0.0629
     47 H           3.2617    3.6826   -0.8745 H       1  UNL11       0.0379
     48 H           1.6148    4.3299   -0.6988 H       1  UNL11       0.0379
     49 H           2.6366    0.6253   -4.4667 H       1  UNL11       0.4829
     50 H          -0.5098    3.4477   -6.1479 H       1  UNL11       0.0627
     51 H          -1.6469    5.4602   -5.2817 H       1  UNL11       0.0618
     52 H          -1.1560    6.3109   -3.0438 H       1  UNL11       0.0618
     53 H           0.5028    5.1547   -1.6548 H       1  UNL11       0.0624
     54 H           3.4035    3.0618    1.4301 H       1  UNL11       0.0621
     55 H           2.9091    1.3501    3.1772 H       1  UNL11       0.0646
     56 H          -1.4907    1.8955    0.1711 H       1  UNL11       0.0502
     57 H          -0.9655    1.2292   -1.4360 H       1  UNL11       0.0502
     58 H          -3.0960    2.4536   -1.5248 H       1  UNL11       0.0742
     59 H          -3.8730    1.2174   -0.4244 H       1  UNL11       0.0742
@<TRIPOS>BOND
     1     1     2    1
     2     1    34    1
     3     1    35    1
     4     2     3    2
     5     2     6    1
     6     3     4    1
     7     4     5    1
     8     4    36    1
     9     4    37    1
    10     5     3    1
    11     5    38    1
    12     5    39    1
    13     6     7    1
    14     7     8    1
    15     7    40    1
    16     7    41    1
    17     8     9    1
    18     8    42    1
    19     8    43    1
    20     9    10    1
    21     9    44    1
    22     9    45    1
    23    10    11   am
    24    10    32    1
    25    11    12    2
    26    11    13    1
    27    13    14   ar
    28    14    15   ar
    29    14    46    1
    30    15    16    1
    31    15    28   ar
    32    16    17    1
    33    16    47    1
    34    16    48    1
    35    17    18    2
    36    18    19    1
    37    19    20   am
    38    19    49    1
    39    20    21    2
    40    20    22    1
    41    22    23   ar
    42    23    24   ar
    43    23    50    1
    44    24    25   ar
    45    24    51    1
    46    25    26   ar
    47    25    52    1
    48    26    27   ar
    49    26    53    1
    50    27    17    1
    51    27    22   ar
    52    28    29   ar
    53    28    54    1
    54    29    30   ar
    55    29    55    1
    56    30    31    1
    57    30    13   ar
    58    32    33    1
    59    32    56    1
    60    32    57    1
    61    33     6    1
    62    33    58    1
    63    33    59    1
@<TRIPOS>MOLECULE
*****
 59 63 0 0 0
SMALL
GASTEIGER

@<TRIPOS>ATOM
      1 N          -5.5099   -0.8384    1.3911 N.pl3   1  UNL11      -0.2515
      2 C          -5.6347   -0.1710    0.1407 C.2     1  UNL11       0.2546
      3 C          -6.8307    0.1983   -0.2658 C.2     1  UNL11       0.0151
      4 C          -8.2878    0.2860   -0.0635 C.3     1  UNL11      -0.0202
      5 C          -7.7100    0.8593   -1.3159 C.3     1  UNL11      -0.0202
      6 N          -4.4817    0.0837   -0.6318 N.pl3   1  UNL11      -0.2241
      7 C          -4.1599    1.4831   -0.9217 C.3     1  UNL11       0.0818
      8 C          -2.9295    1.8103   -0.0965 C.3     1  UNL11      -0.0009
      9 C          -1.7116    1.1024   -0.6224 C.3     1  UNL11       0.0185
     10 N          -1.6309   -0.1963   -0.0098 N.am    1  UNL11      -0.2937
     11 C          -0.4756   -0.4501    0.7517 C.2     1  UNL11       0.2495
     12 O          -0.2947   -1.5671    1.3261 O.2     1  UNL11      -0.2699
     13 C           0.6020    0.5279    0.9475 C.ar    1  UNL11       0.0723
     14 C           1.3661    0.5306    2.1245 C.ar    1  UNL11      -0.0433
     15 C           2.3703    1.4297    2.3409 C.ar    1  UNL11      -0.0405
     16 C           3.1449    1.4194    3.5815 C.3     1  UNL11       0.0211
     17 C           2.4340    0.9361    4.7795 C.2     1  UNL11       0.1192
     18 N           1.1340    0.5357    4.6773 N.2     1  UNL11      -0.0073
     19 N           0.5204    0.0588    5.7238 N.am    1  UNL11      -0.0356
     20 C           1.0743   -0.0756    6.9279 C.2     1  UNL11       0.4383
     21 O           0.4493   -0.5479    7.9394 O.2     1  UNL11      -0.2116
     22 C           2.3732    0.3092    7.0938 C.ar    1  UNL11       0.1004
     23 C           2.9763    0.1975    8.3279 C.ar    1  UNL11      -0.0441
     24 C           4.2821    0.6008    8.4924 C.ar    1  UNL11      -0.0608
     25 C           4.9813    1.1144    7.4257 C.ar    1  UNL11      -0.0611
     26 C           4.3749    1.2235    6.1950 C.ar    1  UNL11      -0.0518
     27 C           3.0533    0.8244    5.9859 C.ar    1  UNL11       0.0192
     28 C           2.6063    2.3538    1.3300 C.ar    1  UNL11      -0.0555
     29 C           1.8613    2.3556    0.1762 C.ar    1  UNL11      -0.0254
     30 C           0.8431    1.4392   -0.0350 C.ar    1  UNL11       0.1355
     31 F           0.1069    1.4368   -1.1695 F       1  UNL11      -0.2047
     32 C          -2.5805   -1.2740   -0.0810 C.3     1  UNL11       0.0510
     33 C          -3.6696   -1.0231   -1.0968 C.3     1  UNL11       0.0960
     34 H          -4.9700   -1.7496    1.4547 H       1  UNL11       0.2881
     35 H          -5.9137   -0.5026    2.2855 H       1  UNL11       0.2881
     36 H          -8.7099    1.0038    0.6718 H       1  UNL11       0.0316
     37 H          -8.9122   -0.6234   -0.2140 H       1  UNL11       0.0316
     38 H          -7.8340    0.2883   -2.2712 H       1  UNL11       0.0316
     39 H          -7.6461    1.9662   -1.3957 H       1  UNL11       0.0316
     40 H          -4.9806    2.1232   -0.5478 H       1  UNL11       0.0726
     41 H          -3.9719    1.6541   -1.9968 H       1  UNL11       0.0726
     42 H          -3.1586    1.5556    0.9503 H       1  UNL11       0.0317
     43 H          -2.7431    2.8935   -0.1692 H       1  UNL11       0.0317
     44 H          -1.7787    0.9279   -1.7305 H       1  UNL11       0.0466
     45 H          -0.8072    1.7195   -0.4380 H       1  UNL11       0.0466
     46 H           1.0903   -0.2566    2.8350 H       1  UNL11       0.0629
     47 H           3.5146    2.4697    3.7922 H       1  UNL11       0.0379
     48 H           4.0550    0.8136    3.4347 H       1  UNL11       0.0379
     49 H          -0.4992   -0.2660    5.6690 H       1  UNL11       0.4829
     50 H           2.4047   -0.2145    9.1700 H       1  UNL11       0.0627
     51 H           4.7471    0.5144    9.4449 H       1  UNL11       0.0618
     52 H           6.0037    1.4293    7.5590 H       1  UNL11       0.0618
     53 H           4.9098    1.6395    5.3734 H       1  UNL11       0.0624
     54 H           3.3897    3.0670    1.4804 H       1  UNL11       0.0621
     55 H           2.0373    3.0703   -0.6167 H       1  UNL11       0.0646
     56 H          -2.0553   -2.2295   -0.3471 H       1  UNL11       0.0502
     57 H          -3.0954   -1.4287    0.9096 H       1  UNL11       0.0502
     58 H          -4.2885   -1.9379   -1.1793 H       1  UNL11       0.0742
     59 H          -3.2092   -0.7832   -2.0983 H       1  UNL11       0.0742
@<TRIPOS>BOND
     1     1     2    1
     2     1    34    1
     3     1    35    1
     4     2     3    2
     5     2     6    1
     6     3     4    1
     7     4     5    1
     8     4    36    1
     9     4    37    1
    10     5     3    1
    11     5    38    1
    12     5    39    1
    13     6     7    1
    14     7     8    1
    15     7    40    1
    16     7    41    1
    17     8     9    1
    18     8    42    1
    19     8    43    1
    20     9    10    1
    21     9    44    1
    22     9    45    1
    23    10    11   am
    24    10    32    1
    25    11    12    2
    26    11    13    1
    27    13    14   ar
    28    14    15   ar
    29    14    46    1
    30    15    16    1
    31    15    28   ar
    32    16    17    1
    33    16    47    1
    34    16    48    1
    35    17    18    2
    36    18    19    1
    37    19    20   am
    38    19    49    1
    39    20    21    2
    40    20    22    1
    41    22    23   ar
    42    23    24   ar
    43    23    50    1
    44    24    25   ar
    45    24    51    1
    46    25    26   ar
    47    25    52    1
    48    26    27   ar
    49    26    53    1
    50    27    17    1
    51    27    22   ar
    52    28    29   ar
    53    28    54    1
    54    29    30   ar
    55    29    55    1
    56    30    31    1
    57    30    13   ar
    58    32    33    1
    59    32    56    1
    60    32    57    1
    61    33     6    1
    62    33    58    1
    63    33    59    1
@<TRIPOS>MOLECULE
*****
 59 63 0 0 0
SMALL
GASTEIGER

@<TRIPOS>ATOM
      1 N          -3.8629    1.6349   -4.4349 N.pl3   1  UNL11      -0.2515
      2 C          -2.9010    0.9653   -3.6280 C.2     1  UNL11       0.2546
      3 C          -1.6893    0.7792   -4.1066 C.2     1  UNL11       0.0151
      4 C          -0.6949    0.9282   -5.1840 C.3     1  UNL11      -0.0202
      5 C          -0.2799    0.2371   -3.9265 C.3     1  UNL11      -0.0202
      6 N          -3.2611    0.5208   -2.3380 N.pl3   1  UNL11      -0.2241
      7 C          -3.8125   -0.8312   -2.2201 C.3     1  UNL11       0.0818
      8 C          -2.7424   -1.6626   -1.5378 C.3     1  UNL11      -0.0009
      9 C          -2.5812   -1.2724   -0.0946 C.3     1  UNL11       0.0185
     10 N          -1.6309   -0.1963   -0.0098 N.am    1  UNL11      -0.2937
     11 C          -0.4756   -0.4501    0.7517 C.2     1  UNL11       0.2495
     12 O          -0.2947   -1.5671    1.3261 O.2     1  UNL11      -0.2699
     13 C           0.6020    0.5279    0.9475 C.ar    1  UNL11       0.0723
     14 C           1.3661    0.5306    2.1245 C.ar    1  UNL11      -0.0433
     15 C           2.3703    1.4297    2.3409 C.ar    1  UNL11      -0.0405
     16 C           3.1449    1.4194    3.5815 C.3     1  UNL11       0.0211
     17 C           2.7703    0.3867    4.5650 C.2     1  UNL11       0.1192
     18 N           1.8276    0.6655    5.5107 N.2     1  UNL11      -0.0073
     19 N           1.4572   -0.2628    6.3474 N.am    1  UNL11      -0.0356
     20 C           1.9382   -1.5051    6.3585 C.2     1  UNL11       0.4383
     21 O           1.5565   -2.3983    7.1912 O.2     1  UNL11      -0.2116
     22 C           2.8857   -1.8447    5.4368 C.ar    1  UNL11       0.1004
     23 C           3.4165   -3.1165    5.4256 C.ar    1  UNL11      -0.0441
     24 C           4.3824   -3.4488    4.5029 C.ar    1  UNL11      -0.0608
     25 C           4.8158   -2.5114    3.5952 C.ar    1  UNL11      -0.0611
     26 C           4.2824   -1.2426    3.6099 C.ar    1  UNL11      -0.0518
     27 C           3.3001   -0.8661    4.5280 C.ar    1  UNL11       0.0192
     28 C           2.6063    2.3538    1.3300 C.ar    1  UNL11      -0.0555
     29 C           1.8613    2.3556    0.1762 C.ar    1  UNL11      -0.0254
     30 C           0.8431    1.4392   -0.0350 C.ar    1  UNL11       0.1355
     31 F           0.1069    1.4368   -1.1695 F       1  UNL11      -0.2047
     32 C          -1.7135    1.1121   -0.6011 C.3     1  UNL11       0.0510
     33 C          -3.0715    1.3956   -1.1981 C.3     1  UNL11       0.0960
     34 H          -4.8207    1.2042   -4.5860 H       1  UNL11       0.2881
     35 H          -3.7095    2.5446   -4.9089 H       1  UNL11       0.2881
     36 H          -0.2356    1.9183   -5.3904 H       1  UNL11       0.0316
     37 H          -0.7598    0.2671   -6.0774 H       1  UNL11       0.0316
     38 H          -0.1864   -0.8788   -3.9364 H       1  UNL11       0.0316
     39 H           0.3827    0.7915   -3.2270 H       1  UNL11       0.0316
     40 H          -3.9509   -1.2501   -3.2342 H       1  UNL11       0.0726
     41 H          -4.7546   -0.8489   -1.6435 H       1  UNL11       0.0726
     42 H          -1.8156   -1.5490   -2.1219 H       1  UNL11       0.0317
     43 H          -3.0560   -2.7182   -1.5648 H       1  UNL11       0.0317
     44 H          -3.5417   -0.8838    0.3404 H       1  UNL11       0.0466
     45 H          -2.2801   -2.1575    0.5044 H       1  UNL11       0.0466
     46 H           1.0903   -0.2566    2.8350 H       1  UNL11       0.0629
     47 H           3.0503    2.4318    4.0818 H       1  UNL11       0.0379
     48 H           4.2156    1.3129    3.3386 H       1  UNL11       0.0379
     49 H           0.7161   -0.0706    7.0970 H       1  UNL11       0.4829
     50 H           3.0601   -3.8540    6.1570 H       1  UNL11       0.0627
     51 H           4.7916   -4.4303    4.4946 H       1  UNL11       0.0618
     52 H           5.5726   -2.7757    2.8745 H       1  UNL11       0.0618
     53 H           4.6319   -0.5107    2.9199 H       1  UNL11       0.0624
     54 H           3.3897    3.0670    1.4804 H       1  UNL11       0.0621
     55 H           2.0373    3.0703   -0.6167 H       1  UNL11       0.0646
     56 H          -1.4907    1.8955    0.1711 H       1  UNL11       0.0502
     57 H          -0.9655    1.2292   -1.4360 H       1  UNL11       0.0502
     58 H          -3.0960    2.4536   -1.5248 H       1  UNL11       0.0742
     59 H          -3.8730    1.2174   -0.4244 H       1  UNL11       0.0742
@<TRIPOS>BOND
     1     1     2    1
     2     1    34    1
     3     1    35    1
     4     2     3    2
     5     2     6    1
     6     3     4    1
     7     4     5    1
     8     4    36    1
     9     4    37    1
    10     5     3    1
    11     5    38    1
    12     5    39    1
    13     6     7    1
    14     7     8    1
    15     7    40    1
    16     7    41    1
    17     8     9    1
    18     8    42    1
    19     8    43    1
    20     9    10    1
    21     9    44    1
    22     9    45    1
    23    10    11   am
    24    10    32    1
    25    11    12    2
    26    11    13    1
    27    13    14   ar
    28    14    15   ar
    29    14    46    1
    30    15    16    1
    31    15    28   ar
    32    16    17    1
    33    16    47    1
    34    16    48    1
    35    17    18    2
    36    18    19    1
    37    19    20   am
    38    19    49    1
    39    20    21    2
    40    20    22    1
    41    22    23   ar
    42    23    24   ar
    43    23    50    1
    44    24    25   ar
    45    24    51    1
    46    25    26   ar
    47    25    52    1
    48    26    27   ar
    49    26    53    1
    50    27    17    1
    51    27    22   ar
    52    28    29   ar
    53    28    54    1
    54    29    30   ar
    55    29    55    1
    56    30    31    1
    57    30    13   ar
    58    32    33    1
    59    32    56    1
    60    32    57    1
    61    33     6    1
    62    33    58    1
    63    33    59    1
@<TRIPOS>MOLECULE
*****
 59 63 0 0 0
SMALL
GASTEIGER

@<TRIPOS>ATOM
      1 N          -3.5146    2.1305   -4.1669 N.pl3   1  UNL11      -0.2515
      2 C          -2.9010    0.9653   -3.6280 C.2     1  UNL11       0.2546
      3 C          -2.0034    0.3285   -4.3496 C.2     1  UNL11       0.0151
      4 C          -1.2094    0.1870   -5.5829 C.3     1  UNL11      -0.0202
      5 C          -1.0216   -0.8232   -4.4989 C.3     1  UNL11      -0.0202
      6 N          -3.2611    0.5208   -2.3380 N.pl3   1  UNL11      -0.2241
      7 C          -3.8125   -0.8312   -2.2201 C.3     1  UNL11       0.0818
      8 C          -2.7424   -1.6626   -1.5378 C.3     1  UNL11      -0.0009
      9 C          -2.5812   -1.2724   -0.0946 C.3     1  UNL11       0.0185
     10 N          -1.6309   -0.1963   -0.0098 N.am    1  UNL11      -0.2937
     11 C          -0.4756   -0.4501    0.7517 C.2     1  UNL11       0.2495
     12 O          -0.2947   -1.5671    1.3261 O.2     1  UNL11      -0.2699
     13 C           0.6020    0.5279    0.9475 C.ar    1  UNL11       0.0723
     14 C           1.9289    0.1095    1.1303 C.ar    1  UNL11      -0.0433
     15 C           2.9529    0.9919    1.3212 C.ar    1  UNL11      -0.0405
     16 C           4.3263    0.5302    1.5213 C.3     1  UNL11       0.0211
     17 C           4.4742   -0.7883    2.1644 C.2     1  UNL11       0.1192
     18 N           3.3626   -1.4899    2.5292 N.2     1  UNL11      -0.0073
     19 N           3.4902   -2.6781    3.0497 N.am    1  UNL11      -0.0356
     20 C           4.6553   -3.2877    3.2636 C.2     1  UNL11       0.4383
     21 O           4.7527   -4.4561    3.7758 O.2     1  UNL11      -0.2116
     22 C           5.8041   -2.6356    2.9204 C.ar    1  UNL11       0.1004
     23 C           7.0287   -3.2287    3.1387 C.ar    1  UNL11      -0.0441
     24 C           8.1844   -2.5600    2.8039 C.ar    1  UNL11      -0.0608
     25 C           8.1144   -1.3022    2.2531 C.ar    1  UNL11      -0.0611
     26 C           6.8890   -0.7141    2.0364 C.ar    1  UNL11      -0.0518
     27 C           5.6937   -1.3591    2.3604 C.ar    1  UNL11       0.0192
     28 C           2.6188    2.3409    1.3255 C.ar    1  UNL11      -0.0555
     29 C           1.3217    2.7558    1.1472 C.ar    1  UNL11      -0.0254
     30 C           0.2880    1.8528    0.9544 C.ar    1  UNL11       0.1355
     31 F          -0.9908    2.2563    0.7782 F       1  UNL11      -0.2047
     32 C          -1.7135    1.1121   -0.6011 C.3     1  UNL11       0.0510
     33 C          -3.0715    1.3956   -1.1981 C.3     1  UNL11       0.0960
     34 H          -4.5717    2.2223   -4.1657 H       1  UNL11       0.2881
     35 H          -3.0034    2.9341   -4.5776 H       1  UNL11       0.2881
     36 H          -0.3599    0.8736   -5.7851 H       1  UNL11       0.0316
     37 H          -1.7003   -0.2044   -6.5024 H       1  UNL11       0.0316
     38 H          -1.4810   -1.8363   -4.6277 H       1  UNL11       0.0316
     39 H          -0.0897   -0.7662   -3.8956 H       1  UNL11       0.0316
     40 H          -3.9509   -1.2501   -3.2342 H       1  UNL11       0.0726
     41 H          -4.7546   -0.8489   -1.6435 H       1  UNL11       0.0726
     42 H          -1.8156   -1.5490   -2.1219 H       1  UNL11       0.0317
     43 H          -3.0560   -2.7182   -1.5648 H       1  UNL11       0.0317
     44 H          -3.5417   -0.8838    0.3404 H       1  UNL11       0.0466
     45 H          -2.2801   -2.1575    0.5044 H       1  UNL11       0.0466
     46 H           2.0614   -0.9775    1.0912 H       1  UNL11       0.0629
     47 H           4.8818    1.2921    2.1498 H       1  UNL11       0.0379
     48 H           4.8485    0.5169    0.5497 H       1  UNL11       0.0379
     49 H           2.6330   -3.2512    3.3411 H       1  UNL11       0.4829
     50 H           7.0682   -4.2337    3.5795 H       1  UNL11       0.0627
     51 H           9.1291   -3.0181    2.9725 H       1  UNL11       0.0618
     52 H           9.0219   -0.7819    1.9926 H       1  UNL11       0.0618
     53 H           6.8351    0.2680    1.6281 H       1  UNL11       0.0624
     54 H           3.4076    3.0487    1.4734 H       1  UNL11       0.0621
     55 H           1.0513    3.8033    1.1485 H       1  UNL11       0.0646
     56 H          -1.4907    1.8955    0.1711 H       1  UNL11       0.0502
     57 H          -0.9655    1.2292   -1.4360 H       1  UNL11       0.0502
     58 H          -3.0960    2.4536   -1.5248 H       1  UNL11       0.0742
     59 H          -3.8730    1.2174   -0.4244 H       1  UNL11       0.0742
@<TRIPOS>BOND
     1     1     2    1
     2     1    34    1
     3     1    35    1
     4     2     3    2
     5     2     6    1
     6     3     4    1
     7     4     5    1
     8     4    36    1
     9     4    37    1
    10     5     3    1
    11     5    38    1
    12     5    39    1
    13     6     7    1
    14     7     8    1
    15     7    40    1
    16     7    41    1
    17     8     9    1
    18     8    42    1
    19     8    43    1
    20     9    10    1
    21     9    44    1
    22     9    45    1
    23    10    11   am
    24    10    32    1
    25    11    12    2
    26    11    13    1
    27    13    14   ar
    28    14    15   ar
    29    14    46    1
    30    15    16    1
    31    15    28   ar
    32    16    17    1
    33    16    47    1
    34    16    48    1
    35    17    18    2
    36    18    19    1
    37    19    20   am
    38    19    49    1
    39    20    21    2
    40    20    22    1
    41    22    23   ar
    42    23    24   ar
    43    23    50    1
    44    24    25   ar
    45    24    51    1
    46    25    26   ar
    47    25    52    1
    48    26    27   ar
    49    26    53    1
    50    27    17    1
    51    27    22   ar
    52    28    29   ar
    53    28    54    1
    54    29    30   ar
    55    29    55    1
    56    30    31    1
    57    30    13   ar
    58    32    33    1
    59    32    56    1
    60    32    57    1
    61    33     6    1
    62    33    58    1
    63    33    59    1
@<TRIPOS>MOLECULE
*****
 59 63 0 0 0
SMALL
GASTEIGER

@<TRIPOS>ATOM
      1 N          -3.1006    0.1101   -4.7475 N.pl3   1  UNL11      -0.2515
      2 C          -2.9010    0.9653   -3.6280 C.2     1  UNL11       0.2546
      3 C          -2.3855    2.1600   -3.8251 C.2     1  UNL11       0.0151
      4 C          -1.8420    3.1942   -4.7233 C.3     1  UNL11      -0.0202
      5 C          -1.9146    3.4916   -3.2614 C.3     1  UNL11      -0.0202
      6 N          -3.2611    0.5208   -2.3380 N.pl3   1  UNL11      -0.2241
      7 C          -3.8125   -0.8312   -2.2201 C.3     1  UNL11       0.0818
      8 C          -2.7424   -1.6626   -1.5378 C.3     1  UNL11      -0.0009
      9 C          -2.5812   -1.2724   -0.0946 C.3     1  UNL11       0.0185
     10 N          -1.6309   -0.1963   -0.0098 N.am    1  UNL11      -0.2937
     11 C          -0.4756   -0.4501    0.7517 C.2     1  UNL11       0.2495
     12 O          -0.2947   -1.5671    1.3261 O.2     1  UNL11      -0.2699
     13 C           0.6020    0.5279    0.9475 C.ar    1  UNL11       0.0723
     14 C           0.8843    1.4930   -0.0313 C.ar    1  UNL11      -0.0433
     15 C           1.8828    2.4121    0.1164 C.ar    1  UNL11      -0.0405
     16 C           2.1653    3.4008   -0.9238 C.3     1  UNL11       0.0211
     17 C           1.8617    2.9851   -2.3055 C.2     1  UNL11       0.1192
     18 N           2.4770    1.8867   -2.8305 N.2     1  UNL11      -0.0073
     19 N           2.1706    1.4871   -4.0329 N.am    1  UNL11      -0.0356
     20 C           1.2761    2.0814   -4.8211 C.2     1  UNL11       0.4383
     21 O           0.9931    1.6678   -5.9984 O.2     1  UNL11      -0.2116
     22 C           0.6276    3.1869   -4.3522 C.ar    1  UNL11       0.1004
     23 C          -0.2950    3.8364   -5.1436 C.ar    1  UNL11      -0.0441
     24 C          -0.9351    4.9594   -4.6706 C.ar    1  UNL11      -0.0608
     25 C          -0.6525    5.4308   -3.4103 C.ar    1  UNL11      -0.0611
     26 C           0.2692    4.7785   -2.6233 C.ar    1  UNL11      -0.0518
     27 C           0.9389    3.6357   -3.0650 C.ar    1  UNL11       0.0192
     28 C           2.6164    2.3496    1.2951 C.ar    1  UNL11      -0.0555
     29 C           2.3443    1.4070    2.2563 C.ar    1  UNL11      -0.0254
     30 C           1.3288    0.4771    2.0978 C.ar    1  UNL11       0.1355
     31 F           1.0568   -0.4529    3.0413 F       1  UNL11      -0.2047
     32 C          -1.7135    1.1121   -0.6011 C.3     1  UNL11       0.0510
     33 C          -3.0715    1.3956   -1.1981 C.3     1  UNL11       0.0960
     34 H          -2.7376   -0.8867   -4.7250 H       1  UNL11       0.2881
     35 H          -3.5899    0.3809   -5.6210 H       1  UNL11       0.2881
     36 H          -2.5188    3.7707   -5.3894 H       1  UNL11       0.0316
     37 H          -0.8094    3.0778   -5.1228 H       1  UNL11       0.0316
     38 H          -0.9696    3.4555   -2.6616 H       1  UNL11       0.0316
     39 H          -2.7035    4.1945   -2.9159 H       1  UNL11       0.0316
     40 H          -3.9509   -1.2501   -3.2342 H       1  UNL11       0.0726
     41 H          -4.7546   -0.8489   -1.6435 H       1  UNL11       0.0726
     42 H          -1.8156   -1.5490   -2.1219 H       1  UNL11       0.0317
     43 H          -3.0560   -2.7182   -1.5648 H       1  UNL11       0.0317
     44 H          -3.5417   -0.8838    0.3404 H       1  UNL11       0.0466
     45 H          -2.2801   -2.1575    0.5044 H       1  UNL11       0.0466
     46 H           0.2254    1.4453   -0.9054 H       1  UNL11       0.0629
     47 H           3.2617    3.6826   -0.8745 H       1  UNL11       0.0379
     48 H           1.6148    4.3299   -0.6988 H       1  UNL11       0.0379
     49 H           2.6366    0.6253   -4.4667 H       1  UNL11       0.4829
     50 H          -0.5098    3.4477   -6.1479 H       1  UNL11       0.0627
     51 H          -1.6469    5.4602   -5.2817 H       1  UNL11       0.0618
     52 H          -1.1560    6.3109   -3.0438 H       1  UNL11       0.0618
     53 H           0.5028    5.1547   -1.6548 H       1  UNL11       0.0624
     54 H           3.4035    3.0618    1.4301 H       1  UNL11       0.0621
     55 H           2.9091    1.3501    3.1772 H       1  UNL11       0.0646
     56 H          -1.4907    1.8955    0.1711 H       1  UNL11       0.0502
     57 H          -0.9655    1.2292   -1.4360 H       1  UNL11       0.0502
     58 H          -3.0960    2.4536   -1.5248 H       1  UNL11       0.0742
     59 H          -3.8730    1.2174   -0.4244 H       1  UNL11       0.0742
@<TRIPOS>BOND
     1     1     2    1
     2     1    34    1
     3     1    35    1
     4     2     3    2
     5     2     6    1
     6     3     4    1
     7     4     5    1
     8     4    36    1
     9     4    37    1
    10     5     3    1
    11     5    38    1
    12     5    39    1
    13     6     7    1
    14     7     8    1
    15     7    40    1
    16     7    41    1
    17     8     9    1
    18     8    42    1
    19     8    43    1
    20     9    10    1
    21     9    44    1
    22     9    45    1
    23    10    11   am
    24    10    32    1
    25    11    12    2
    26    11    13    1
    27    13    14   ar
    28    14    15   ar
    29    14    46    1
    30    15    16    1
    31    15    28   ar
    32    16    17    1
    33    16    47    1
    34    16    48    1
    35    17    18    2
    36    18    19    1
    37    19    20   am
    38    19    49    1
    39    20    21    2
    40    20    22    1
    41    22    23   ar
    42    23    24   ar
    43    23    50    1
    44    24    25   ar
    45    24    51    1
    46    25    26   ar
    47    25    52    1
    48    26    27   ar
    49    26    53    1
    50    27    17    1
    51    27    22   ar
    52    28    29   ar
    53    28    54    1
    54    29    30   ar
    55    29    55    1
    56    30    31    1
    57    30    13   ar
    58    32    33    1
    59    32    56    1
    60    32    57    1
    61    33     6    1
    62    33    58    1
    63    33    59    1
@<TRIPOS>MOLECULE
*****
 59 63 0 0 0
SMALL
GASTEIGER

@<TRIPOS>ATOM
      1 N          -3.1006    0.1101   -4.7475 N.pl3   1  UNL11      -0.2515
      2 C          -2.9010    0.9653   -3.6280 C.2     1  UNL11       0.2546
      3 C          -2.3855    2.1600   -3.8251 C.2     1  UNL11       0.0151
      4 C          -1.8420    3.1942   -4.7233 C.3     1  UNL11      -0.0202
      5 C          -1.9146    3.4916   -3.2614 C.3     1  UNL11      -0.0202
      6 N          -3.2611    0.5208   -2.3380 N.pl3   1  UNL11      -0.2241
      7 C          -3.8125   -0.8312   -2.2201 C.3     1  UNL11       0.0818
      8 C          -2.7424   -1.6626   -1.5378 C.3     1  UNL11      -0.0009
      9 C          -2.5812   -1.2724   -0.0946 C.3     1  UNL11       0.0185
     10 N          -1.6309   -0.1963   -0.0098 N.am    1  UNL11      -0.2937
     11 C          -0.4756   -0.4501    0.7517 C.2     1  UNL11       0.2495
     12 O          -0.2947   -1.5671    1.3261 O.2     1  UNL11      -0.2699
     13 C           0.6020    0.5279    0.9475 C.ar    1  UNL11       0.0723
     14 C           0.8843    1.4930   -0.0313 C.ar    1  UNL11      -0.0433
     15 C           1.8828    2.4121    0.1164 C.ar    1  UNL11      -0.0405
     16 C           2.1653    3.4008   -0.9238 C.3     1  UNL11       0.0211
     17 C           3.1525    2.9985   -1.9424 C.2     1  UNL11       0.1192
     18 N           4.4197    2.6678   -1.5607 N.2     1  UNL11      -0.0073
     19 N           5.2783    2.2613   -2.4532 N.am    1  UNL11      -0.0356
     20 C           5.0145    2.1371   -3.7532 C.2     1  UNL11       0.4383
     21 O           5.8762    1.7347   -4.6090 O.2     1  UNL11      -0.2116
     22 C           3.7635    2.4544   -4.1970 C.ar    1  UNL11       0.1004
     23 C           3.4571    2.3510   -5.5366 C.ar    1  UNL11      -0.0441
     24 C           2.1980    2.6864   -5.9803 C.ar    1  UNL11      -0.0608
     25 C           1.2493    3.1240   -5.0865 C.ar    1  UNL11      -0.0611
     26 C           1.5598    3.2251   -3.7494 C.ar    1  UNL11      -0.0518
     27 C           2.8242    2.8933   -3.2587 C.ar    1  UNL11       0.0192
     28 C           2.6164    2.3496    1.2951 C.ar    1  UNL11      -0.0555
     29 C           2.3443    1.4070    2.2563 C.ar    1  UNL11      -0.0254
     30 C           1.3288    0.4771    2.0978 C.ar    1  UNL11       0.1355
     31 F           1.0568   -0.4529    3.0413 F       1  UNL11      -0.2047
     32 C          -1.7135    1.1121   -0.6011 C.3     1  UNL11       0.0510
     33 C          -3.0715    1.3956   -1.1981 C.3     1  UNL11       0.0960
     34 H          -2.7376   -0.8867   -4.7250 H       1  UNL11       0.2881
     35 H          -3.5899    0.3809   -5.6210 H       1  UNL11       0.2881
     36 H          -2.5188    3.7707   -5.3894 H       1  UNL11       0.0316
     37 H          -0.8094    3.0778   -5.1228 H       1  UNL11       0.0316
     38 H          -0.9696    3.4555   -2.6616 H       1  UNL11       0.0316
     39 H          -2.7035    4.1945   -2.9159 H       1  UNL11       0.0316
     40 H          -3.9509   -1.2501   -3.2342 H       1  UNL11       0.0726
     41 H          -4.7546   -0.8489   -1.6435 H       1  UNL11       0.0726
     42 H          -1.8156   -1.5490   -2.1219 H       1  UNL11       0.0317
     43 H          -3.0560   -2.7182   -1.5648 H       1  UNL11       0.0317
     44 H          -3.5417   -0.8838    0.3404 H       1  UNL11       0.0466
     45 H          -2.2801   -2.1575    0.5044 H       1  UNL11       0.0466
     46 H           0.2254    1.4453   -0.9054 H       1  UNL11       0.0629
     47 H           2.5341    4.3538   -0.4341 H       1  UNL11       0.0379
     48 H           1.2227    3.6767   -1.4260 H       1  UNL11       0.0379
     49 H           6.2784    1.9921   -2.1788 H       1  UNL11       0.4829
     50 H           4.2255    2.0001   -6.2381 H       1  UNL11       0.0627
     51 H           1.9620    2.6064   -7.0142 H       1  UNL11       0.0618
     52 H           0.2645    3.3859   -5.4383 H       1  UNL11       0.0618
     53 H           0.8314    3.5827   -3.0597 H       1  UNL11       0.0624
     54 H           3.4035    3.0618    1.4301 H       1  UNL11       0.0621
     55 H           2.9091    1.3501    3.1772 H       1  UNL11       0.0646
     56 H          -1.4907    1.8955    0.1711 H       1  UNL11       0.0502
     57 H          -0.9655    1.2292   -1.4360 H       1  UNL11       0.0502
     58 H          -3.0960    2.4536   -1.5248 H       1  UNL11       0.0742
     59 H          -3.8730    1.2174   -0.4244 H       1  UNL11       0.0742
@<TRIPOS>BOND
     1     1     2    1
     2     1    34    1
     3     1    35    1
     4     2     3    2
     5     2     6    1
     6     3     4    1
     7     4     5    1
     8     4    36    1
     9     4    37    1
    10     5     3    1
    11     5    38    1
    12     5    39    1
    13     6     7    1
    14     7     8    1
    15     7    40    1
    16     7    41    1
    17     8     9    1
    18     8    42    1
    19     8    43    1
    20     9    10    1
    21     9    44    1
    22     9    45    1
    23    10    11   am
    24    10    32    1
    25    11    12    2
    26    11    13    1
    27    13    14   ar
    28    14    15   ar
    29    14    46    1
    30    15    16    1
    31    15    28   ar
    32    16    17    1
    33    16    47    1
    34    16    48    1
    35    17    18    2
    36    18    19    1
    37    19    20   am
    38    19    49    1
    39    20    21    2
    40    20    22    1
    41    22    23   ar
    42    23    24   ar
    43    23    50    1
    44    24    25   ar
    45    24    51    1
    46    25    26   ar
    47    25    52    1
    48    26    27   ar
    49    26    53    1
    50    27    17    1
    51    27    22   ar
    52    28    29   ar
    53    28    54    1
    54    29    30   ar
    55    29    55    1
    56    30    31    1
    57    30    13   ar
    58    32    33    1
    59    32    56    1
    60    32    57    1
    61    33     6    1
    62    33    58    1
    63    33    59    1
@<TRIPOS>MOLECULE
*****
 59 63 0 0 0
SMALL
GASTEIGER

@<TRIPOS>ATOM
      1 N          -3.1006    0.1101   -4.7475 N.pl3   1  UNL11      -0.2515
      2 C          -2.9010    0.9653   -3.6280 C.2     1  UNL11       0.2546
      3 C          -2.3855    2.1600   -3.8251 C.2     1  UNL11       0.0151
      4 C          -1.8420    3.1942   -4.7233 C.3     1  UNL11      -0.0202
      5 C          -1.9146    3.4916   -3.2614 C.3     1  UNL11      -0.0202
      6 N          -3.2611    0.5208   -2.3380 N.pl3   1  UNL11      -0.2241
      7 C          -3.8125   -0.8312   -2.2201 C.3     1  UNL11       0.0818
      8 C          -2.7424   -1.6626   -1.5378 C.3     1  UNL11      -0.0009
      9 C          -2.5812   -1.2724   -0.0946 C.3     1  UNL11       0.0185
     10 N          -1.6309   -0.1963   -0.0098 N.am    1  UNL11      -0.2937
     11 C          -0.4756   -0.4501    0.7517 C.2     1  UNL11       0.2495
     12 O          -0.2947   -1.5671    1.3261 O.2     1  UNL11      -0.2699
     13 C           0.6020    0.5279    0.9475 C.ar    1  UNL11       0.0723
     14 C           1.9289    0.1095    1.1303 C.ar    1  UNL11      -0.0433
     15 C           2.9529    0.9919    1.3212 C.ar    1  UNL11      -0.0405
     16 C           4.3263    0.5302    1.5213 C.3     1  UNL11       0.0211
     17 C           5.1384    0.3796    0.2999 C.2     1  UNL11       0.1192
     18 N           4.7282   -0.4734   -0.6825 N.2     1  UNL11      -0.0073
     19 N           5.4169   -0.5683   -1.7851 N.am    1  UNL11      -0.0356
     20 C           6.5272    0.1210   -2.0437 C.2     1  UNL11       0.4383
     21 O           7.1846    0.0094   -3.1357 O.2     1  UNL11      -0.2116
     22 C           6.9890    0.9903   -1.0983 C.ar    1  UNL11       0.1004
     23 C           8.1416    1.7112   -1.3244 C.ar    1  UNL11      -0.0441
     24 C           8.6104    2.5755   -0.3610 C.ar    1  UNL11      -0.0608
     25 C           7.9282    2.7173    0.8243 C.ar    1  UNL11      -0.0611
     26 C           6.7773    1.9956    1.0454 C.ar    1  UNL11      -0.0518
     27 C           6.2678    1.1100    0.0937 C.ar    1  UNL11       0.0192
     28 C           2.6188    2.3409    1.3255 C.ar    1  UNL11      -0.0555
     29 C           1.3217    2.7558    1.1472 C.ar    1  UNL11      -0.0254
     30 C           0.2880    1.8528    0.9544 C.ar    1  UNL11       0.1355
     31 F          -0.9908    2.2563    0.7782 F       1  UNL11      -0.2047
     32 C          -1.7135    1.1121   -0.6011 C.3     1  UNL11       0.0510
     33 C          -3.0715    1.3956   -1.1981 C.3     1  UNL11       0.0960
     34 H          -2.7376   -0.8867   -4.7250 H       1  UNL11       0.2881
     35 H          -3.5899    0.3809   -5.6210 H       1  UNL11       0.2881
     36 H          -2.5188    3.7707   -5.3894 H       1  UNL11       0.0316
     37 H          -0.8094    3.0778   -5.1228 H       1  UNL11       0.0316
     38 H          -0.9696    3.4555   -2.6616 H       1  UNL11       0.0316
     39 H          -2.7035    4.1945   -2.9159 H       1  UNL11       0.0316
     40 H          -3.9509   -1.2501   -3.2342 H       1  UNL11       0.0726
     41 H          -4.7546   -0.8489   -1.6435 H       1  UNL11       0.0726
     42 H          -1.8156   -1.5490   -2.1219 H       1  UNL11       0.0317
     43 H          -3.0560   -2.7182   -1.5648 H       1  UNL11       0.0317
     44 H          -3.5417   -0.8838    0.3404 H       1  UNL11       0.0466
     45 H          -2.2801   -2.1575    0.5044 H       1  UNL11       0.0466
     46 H           2.0614   -0.9775    1.0912 H       1  UNL11       0.0629
     47 H           4.3035   -0.4698    2.0537 H       1  UNL11       0.0379
     48 H           4.8417    1.2176    2.2131 H       1  UNL11       0.0379
     49 H           5.1141   -1.2278   -2.5734 H       1  UNL11       0.4829
     50 H           8.6752    1.5869   -2.2760 H       1  UNL11       0.0627
     51 H           9.4997    3.1316   -0.5360 H       1  UNL11       0.0618
     52 H           8.2990    3.3951    1.5762 H       1  UNL11       0.0618
     53 H           6.2596    2.0904    1.9712 H       1  UNL11       0.0624
     54 H           3.4076    3.0487    1.4734 H       1  UNL11       0.0621
     55 H           1.0513    3.8033    1.1485 H       1  UNL11       0.0646
     56 H          -1.4907    1.8955    0.1711 H       1  UNL11       0.0502
     57 H          -0.9655    1.2292   -1.4360 H       1  UNL11       0.0502
     58 H          -3.0960    2.4536   -1.5248 H       1  UNL11       0.0742
     59 H          -3.8730    1.2174   -0.4244 H       1  UNL11       0.0742
@<TRIPOS>BOND
     1     1     2    1
     2     1    34    1
     3     1    35    1
     4     2     3    2
     5     2     6    1
     6     3     4    1
     7     4     5    1
     8     4    36    1
     9     4    37    1
    10     5     3    1
    11     5    38    1
    12     5    39    1
    13     6     7    1
    14     7     8    1
    15     7    40    1
    16     7    41    1
    17     8     9    1
    18     8    42    1
    19     8    43    1
    20     9    10    1
    21     9    44    1
    22     9    45    1
    23    10    11   am
    24    10    32    1
    25    11    12    2
    26    11    13    1
    27    13    14   ar
    28    14    15   ar
    29    14    46    1
    30    15    16    1
    31    15    28   ar
    32    16    17    1
    33    16    47    1
    34    16    48    1
    35    17    18    2
    36    18    19    1
    37    19    20   am
    38    19    49    1
    39    20    21    2
    40    20    22    1
    41    22    23   ar
    42    23    24   ar
    43    23    50    1
    44    24    25   ar
    45    24    51    1
    46    25    26   ar
    47    25    52    1
    48    26    27   ar
    49    26    53    1
    50    27    17    1
    51    27    22   ar
    52    28    29   ar
    53    28    54    1
    54    29    30   ar
    55    29    55    1
    56    30    31    1
    57    30    13   ar
    58    32    33    1
    59    32    56    1
    60    32    57    1
    61    33     6    1
    62    33    58    1
    63    33    59    1
@<TRIPOS>MOLECULE
*****
 59 63 0 0 0
SMALL
GASTEIGER

@<TRIPOS>ATOM
      1 N          -3.1006    0.1101   -4.7475 N.pl3   1  UNL11      -0.2515
      2 C          -2.9010    0.9653   -3.6280 C.2     1  UNL11       0.2546
      3 C          -2.3855    2.1600   -3.8251 C.2     1  UNL11       0.0151
      4 C          -1.8420    3.1942   -4.7233 C.3     1  UNL11      -0.0202
      5 C          -1.9146    3.4916   -3.2614 C.3     1  UNL11      -0.0202
      6 N          -3.2611    0.5208   -2.3380 N.pl3   1  UNL11      -0.2241
      7 C          -3.8125   -0.8312   -2.2201 C.3     1  UNL11       0.0818
      8 C          -2.7424   -1.6626   -1.5378 C.3     1  UNL11      -0.0009
      9 C          -2.5812   -1.2724   -0.0946 C.3     1  UNL11       0.0185
     10 N          -1.6309   -0.1963   -0.0098 N.am    1  UNL11      -0.2937
     11 C          -0.4756   -0.4501    0.7517 C.2     1  UNL11       0.2495
     12 O          -0.2947   -1.5671    1.3261 O.2     1  UNL11      -0.2699
     13 C           0.6020    0.5279    0.9475 C.ar    1  UNL11       0.0723
     14 C           1.3661    0.5306    2.1245 C.ar    1  UNL11      -0.0433
     15 C           2.3703    1.4297    2.3409 C.ar    1  UNL11      -0.0405
     16 C           3.1449    1.4194    3.5815 C.3     1  UNL11       0.0211
     17 C           4.5957    1.2029    3.4321 C.2     1  UNL11       0.1192
     18 N           5.0632    0.4596    2.3882 N.2     1  UNL11      -0.0073
     19 N           6.3478    0.3111    2.2246 N.am    1  UNL11      -0.0356
     20 C           7.2765    0.8421    3.0186 C.2     1  UNL11       0.4383
     21 O           8.5325    0.6813    2.8351 O.2     1  UNL11      -0.2116
     22 C           6.8708    1.5956    4.0818 C.ar    1  UNL11       0.1004
     23 C           7.8020    2.1503    4.9329 C.ar    1  UNL11      -0.0441
     24 C           7.3863    2.8972    6.0119 C.ar    1  UNL11      -0.0608
     25 C           6.0436    3.0876    6.2382 C.ar    1  UNL11      -0.0611
     26 C           5.1173    2.5320    5.3852 C.ar    1  UNL11      -0.0518
     27 C           5.4975    1.7696    4.2790 C.ar    1  UNL11       0.0192
     28 C           2.6063    2.3538    1.3300 C.ar    1  UNL11      -0.0555
     29 C           1.8613    2.3556    0.1762 C.ar    1  UNL11      -0.0254
     30 C           0.8431    1.4392   -0.0350 C.ar    1  UNL11       0.1355
     31 F           0.1069    1.4368   -1.1695 F       1  UNL11      -0.2047
     32 C          -1.7135    1.1121   -0.6011 C.3     1  UNL11       0.0510
     33 C          -3.0715    1.3956   -1.1981 C.3     1  UNL11       0.0960
     34 H          -2.7376   -0.8867   -4.7250 H       1  UNL11       0.2881
     35 H          -3.5899    0.3809   -5.6210 H       1  UNL11       0.2881
     36 H          -2.5188    3.7707   -5.3894 H       1  UNL11       0.0316
     37 H          -0.8094    3.0778   -5.1228 H       1  UNL11       0.0316
     38 H          -0.9696    3.4555   -2.6616 H       1  UNL11       0.0316
     39 H          -2.7035    4.1945   -2.9159 H       1  UNL11       0.0316
     40 H          -3.9509   -1.2501   -3.2342 H       1  UNL11       0.0726
     41 H          -4.7546   -0.8489   -1.6435 H       1  UNL11       0.0726
     42 H          -1.8156   -1.5490   -2.1219 H       1  UNL11       0.0317
     43 H          -3.0560   -2.7182   -1.5648 H       1  UNL11       0.0317
     44 H          -3.5417   -0.8838    0.3404 H       1  UNL11       0.0466
     45 H          -2.2801   -2.1575    0.5044 H       1  UNL11       0.0466
     46 H           1.0903   -0.2566    2.8350 H       1  UNL11       0.0629
     47 H           2.7371    0.6104    4.2623 H       1  UNL11       0.0379
     48 H           2.9766    2.3668    4.1208 H       1  UNL11       0.0379
     49 H           6.7407   -0.2646    1.4108 H       1  UNL11       0.4829
     50 H           8.8707    1.9892    4.7388 H       1  UNL11       0.0627
     51 H           8.1052    3.3251    6.6683 H       1  UNL11       0.0618
     52 H           5.7223    3.6730    7.0846 H       1  UNL11       0.0618
     53 H           4.0769    2.6628    5.5714 H       1  UNL11       0.0624
     54 H           3.3897    3.0670    1.4804 H       1  UNL11       0.0621
     55 H           2.0373    3.0703   -0.6167 H       1  UNL11       0.0646
     56 H          -1.4907    1.8955    0.1711 H       1  UNL11       0.0502
     57 H          -0.9655    1.2292   -1.4360 H       1  UNL11       0.0502
     58 H          -3.0960    2.4536   -1.5248 H       1  UNL11       0.0742
     59 H          -3.8730    1.2174   -0.4244 H       1  UNL11       0.0742
@<TRIPOS>BOND
     1     1     2    1
     2     1    34    1
     3     1    35    1
     4     2     3    2
     5     2     6    1
     6     3     4    1
     7     4     5    1
     8     4    36    1
     9     4    37    1
    10     5     3    1
    11     5    38    1
    12     5    39    1
    13     6     7    1
    14     7     8    1
    15     7    40    1
    16     7    41    1
    17     8     9    1
    18     8    42    1
    19     8    43    1
    20     9    10    1
    21     9    44    1
    22     9    45    1
    23    10    11   am
    24    10    32    1
    25    11    12    2
    26    11    13    1
    27    13    14   ar
    28    14    15   ar
    29    14    46    1
    30    15    16    1
    31    15    28   ar
    32    16    17    1
    33    16    47    1
    34    16    48    1
    35    17    18    2
    36    18    19    1
    37    19    20   am
    38    19    49    1
    39    20    21    2
    40    20    22    1
    41    22    23   ar
    42    23    24   ar
    43    23    50    1
    44    24    25   ar
    45    24    51    1
    46    25    26   ar
    47    25    52    1
    48    26    27   ar
    49    26    53    1
    50    27    17    1
    51    27    22   ar
    52    28    29   ar
    53    28    54    1
    54    29    30   ar
    55    29    55    1
    56    30    31    1
    57    30    13   ar
    58    32    33    1
    59    32    56    1
    60    32    57    1
    61    33     6    1
    62    33    58    1
    63    33    59    1
@<TRIPOS>MOLECULE
*****
 59 63 0 0 0
SMALL
GASTEIGER

@<TRIPOS>ATOM
      1 N          -2.9679    2.3524   -3.9378 N.pl3   1  UNL11      -0.2515
      2 C          -2.9010    0.9653   -3.6280 C.2     1  UNL11       0.2546
      3 C          -2.4983    0.1254   -4.5577 C.2     1  UNL11       0.0151
      4 C          -2.0215   -0.1480   -5.9250 C.3     1  UNL11      -0.0202
      5 C          -2.1883   -1.2997   -4.9887 C.3     1  UNL11      -0.0202
      6 N          -3.2611    0.5208   -2.3380 N.pl3   1  UNL11      -0.2241
      7 C          -3.8125   -0.8312   -2.2201 C.3     1  UNL11       0.0818
      8 C          -2.7424   -1.6626   -1.5378 C.3     1  UNL11      -0.0009
      9 C          -2.5812   -1.2724   -0.0946 C.3     1  UNL11       0.0185
     10 N          -1.6309   -0.1963   -0.0098 N.am    1  UNL11      -0.2937
     11 C          -0.4756   -0.4501    0.7517 C.2     1  UNL11       0.2495
     12 O          -0.2947   -1.5671    1.3261 O.2     1  UNL11      -0.2699
     13 C           0.6020    0.5279    0.9475 C.ar    1  UNL11       0.0723
     14 C           0.5304    1.8033    0.3668 C.ar    1  UNL11      -0.0433
     15 C           1.5173    2.7334    0.5236 C.ar    1  UNL11      -0.0405
     16 C           1.4247    4.0523   -0.1019 C.3     1  UNL11       0.0211
     17 C           2.5018    4.3915   -1.0498 C.2     1  UNL11       0.1192
     18 N           2.4997    5.6081   -1.6668 N.2     1  UNL11      -0.0073
     19 N           3.4790    5.9300   -2.4646 N.am    1  UNL11      -0.0356
     20 C           4.5190    5.1439   -2.7388 C.2     1  UNL11       0.4383
     21 O           5.4684    5.4849   -3.5259 O.2     1  UNL11      -0.2116
     22 C           4.5773    3.9129   -2.1526 C.ar    1  UNL11       0.1004
     23 C           5.6310    3.0666   -2.4223 C.ar    1  UNL11      -0.0441
     24 C           5.6767    1.8204   -1.8393 C.ar    1  UNL11      -0.0608
     25 C           4.6713    1.4228   -0.9899 C.ar    1  UNL11      -0.0611
     26 C           3.6212    2.2717   -0.7232 C.ar    1  UNL11      -0.0518
     27 C           3.5382    3.5439   -1.2926 C.ar    1  UNL11       0.0192
     28 C           2.6102    2.3565    1.2950 C.ar    1  UNL11      -0.0555
     29 C           2.6853    1.1095    1.8656 C.ar    1  UNL11      -0.0254
     30 C           1.6787    0.1710    1.7007 C.ar    1  UNL11       0.1355
     31 F           1.7480   -1.0581    2.2606 F       1  UNL11      -0.2047
     32 C          -1.7135    1.1121   -0.6011 C.3     1  UNL11       0.0510
     33 C          -3.0715    1.3956   -1.1981 C.3     1  UNL11       0.0960
     34 H          -3.8530    2.9001   -3.7316 H       1  UNL11       0.2881
     35 H          -2.1989    2.9028   -4.3638 H       1  UNL11       0.2881
     36 H          -0.9836    0.1156   -6.2203 H       1  UNL11       0.0316
     37 H          -2.7486   -0.1257   -6.7679 H       1  UNL11       0.0316
     38 H          -3.0764   -1.9693   -5.1188 H       1  UNL11       0.0316
     39 H          -1.2685   -1.7599   -4.5670 H       1  UNL11       0.0316
     40 H          -3.9509   -1.2501   -3.2342 H       1  UNL11       0.0726
     41 H          -4.7546   -0.8489   -1.6435 H       1  UNL11       0.0726
     42 H          -1.8156   -1.5490   -2.1219 H       1  UNL11       0.0317
     43 H          -3.0560   -2.7182   -1.5648 H       1  UNL11       0.0317
     44 H          -3.5417   -0.8838    0.3404 H       1  UNL11       0.0466
     45 H          -2.2801   -2.1575    0.5044 H       1  UNL11       0.0466
     46 H          -0.3879    1.9806   -0.2042 H       1  UNL11       0.0629
     47 H           1.4087    4.8431    0.7096 H       1  UNL11       0.0379
     48 H           0.4525    4.1415   -0.6155 H       1  UNL11       0.0379
     49 H           3.5028    6.8806   -2.9583 H       1  UNL11       0.4829
     50 H           6.4263    3.3985   -3.1028 H       1  UNL11       0.0627
     51 H           6.4901    1.1678   -2.0476 H       1  UNL11       0.0618
     52 H           4.7109    0.4459   -0.5357 H       1  UNL11       0.0618
     53 H           2.8323    1.9565   -0.0810 H       1  UNL11       0.0624
     54 H           3.3945    3.0717    1.4302 H       1  UNL11       0.0621
     55 H           3.5313    0.8065    2.4680 H       1  UNL11       0.0646
     56 H          -1.4907    1.8955    0.1711 H       1  UNL11       0.0502
     57 H          -0.9655    1.2292   -1.4360 H       1  UNL11       0.0502
     58 H          -3.0960    2.4536   -1.5248 H       1  UNL11       0.0742
     59 H          -3.8730    1.2174   -0.4244 H       1  UNL11       0.0742
@<TRIPOS>BOND
     1     1     2    1
     2     1    34    1
     3     1    35    1
     4     2     3    2
     5     2     6    1
     6     3     4    1
     7     4     5    1
     8     4    36    1
     9     4    37    1
    10     5     3    1
    11     5    38    1
    12     5    39    1
    13     6     7    1
    14     7     8    1
    15     7    40    1
    16     7    41    1
    17     8     9    1
    18     8    42    1
    19     8    43    1
    20     9    10    1
    21     9    44    1
    22     9    45    1
    23    10    11   am
    24    10    32    1
    25    11    12    2
    26    11    13    1
    27    13    14   ar
    28    14    15   ar
    29    14    46    1
    30    15    16    1
    31    15    28   ar
    32    16    17    1
    33    16    47    1
    34    16    48    1
    35    17    18    2
    36    18    19    1
    37    19    20   am
    38    19    49    1
    39    20    21    2
    40    20    22    1
    41    22    23   ar
    42    23    24   ar
    43    23    50    1
    44    24    25   ar
    45    24    51    1
    46    25    26   ar
    47    25    52    1
    48    26    27   ar
    49    26    53    1
    50    27    17    1
    51    27    22   ar
    52    28    29   ar
    53    28    54    1
    54    29    30   ar
    55    29    55    1
    56    30    31    1
    57    30    13   ar
    58    32    33    1
    59    32    56    1
    60    32    57    1
    61    33     6    1
    62    33    58    1
    63    33    59    1
@<TRIPOS>MOLECULE
*****
 59 63 0 0 0
SMALL
GASTEIGER

@<TRIPOS>ATOM
      1 N          -3.5146    2.1305   -4.1669 N.pl3   1  UNL11      -0.2515
      2 C          -2.9010    0.9653   -3.6280 C.2     1  UNL11       0.2546
      3 C          -2.0034    0.3285   -4.3496 C.2     1  UNL11       0.0151
      4 C          -1.2094    0.1870   -5.5829 C.3     1  UNL11      -0.0202
      5 C          -1.0216   -0.8232   -4.4989 C.3     1  UNL11      -0.0202
      6 N          -3.2611    0.5208   -2.3380 N.pl3   1  UNL11      -0.2241
      7 C          -3.8125   -0.8312   -2.2201 C.3     1  UNL11       0.0818
      8 C          -2.7424   -1.6626   -1.5378 C.3     1  UNL11      -0.0009
      9 C          -2.5812   -1.2724   -0.0946 C.3     1  UNL11       0.0185
     10 N          -1.6309   -0.1963   -0.0098 N.am    1  UNL11      -0.2937
     11 C          -0.4756   -0.4501    0.7517 C.2     1  UNL11       0.2495
     12 O          -0.2947   -1.5671    1.3261 O.2     1  UNL11      -0.2699
     13 C           0.6020    0.5279    0.9475 C.ar    1  UNL11       0.0723
     14 C           0.8843    1.4930   -0.0313 C.ar    1  UNL11      -0.0433
     15 C           1.8828    2.4121    0.1164 C.ar    1  UNL11      -0.0405
     16 C           2.1653    3.4008   -0.9238 C.3     1  UNL11       0.0211
     17 C           3.5682    3.8427   -1.0272 C.2     1  UNL11       0.1192
     18 N           4.5027    3.3266   -0.1779 N.2     1  UNL11      -0.0073
     19 N           5.7522    3.6764   -0.3022 N.am    1  UNL11      -0.0356
     20 C           6.2109    4.5254   -1.2206 C.2     1  UNL11       0.4383
     21 O           7.4440    4.8516   -1.3215 O.2     1  UNL11      -0.2116
     22 C           5.3236    5.0765   -2.0989 C.ar    1  UNL11       0.1004
     23 C           5.7587    5.9690   -3.0546 C.ar    1  UNL11      -0.0441
     24 C           4.8567    6.5327   -3.9283 C.ar    1  UNL11      -0.0608
     25 C           3.5241    6.2046   -3.8454 C.ar    1  UNL11      -0.0611
     26 C           3.0943    5.3123   -2.8896 C.ar    1  UNL11      -0.0518
     27 C           3.9769    4.7174   -1.9860 C.ar    1  UNL11       0.0192
     28 C           2.6164    2.3496    1.2951 C.ar    1  UNL11      -0.0555
     29 C           2.3443    1.4070    2.2563 C.ar    1  UNL11      -0.0254
     30 C           1.3288    0.4771    2.0978 C.ar    1  UNL11       0.1355
     31 F           1.0568   -0.4529    3.0413 F       1  UNL11      -0.2047
     32 C          -1.7135    1.1121   -0.6011 C.3     1  UNL11       0.0510
     33 C          -3.0715    1.3956   -1.1981 C.3     1  UNL11       0.0960
     34 H          -4.5717    2.2223   -4.1657 H       1  UNL11       0.2881
     35 H          -3.0034    2.9341   -4.5776 H       1  UNL11       0.2881
     36 H          -0.3599    0.8736   -5.7851 H       1  UNL11       0.0316
     37 H          -1.7003   -0.2044   -6.5024 H       1  UNL11       0.0316
     38 H          -1.4810   -1.8363   -4.6277 H       1  UNL11       0.0316
     39 H          -0.0897   -0.7662   -3.8956 H       1  UNL11       0.0316
     40 H          -3.9509   -1.2501   -3.2342 H       1  UNL11       0.0726
     41 H          -4.7546   -0.8489   -1.6435 H       1  UNL11       0.0726
     42 H          -1.8156   -1.5490   -2.1219 H       1  UNL11       0.0317
     43 H          -3.0560   -2.7182   -1.5648 H       1  UNL11       0.0317
     44 H          -3.5417   -0.8838    0.3404 H       1  UNL11       0.0466
     45 H          -2.2801   -2.1575    0.5044 H       1  UNL11       0.0466
     46 H           0.2254    1.4453   -0.9054 H       1  UNL11       0.0629
     47 H           1.5209    4.3158   -0.7454 H       1  UNL11       0.0379
     48 H           1.8413    3.0016   -1.8998 H       1  UNL11       0.0379
     49 H           6.5060    3.2827    0.3496 H       1  UNL11       0.4829
     50 H           6.8262    6.2211   -3.1080 H       1  UNL11       0.0627
     51 H           5.1930    7.2213   -4.6656 H       1  UNL11       0.0618
     52 H           2.8210    6.6486   -4.5315 H       1  UNL11       0.0618
     53 H           2.0594    5.0730   -2.8124 H       1  UNL11       0.0624
     54 H           3.4035    3.0618    1.4301 H       1  UNL11       0.0621
     55 H           2.9091    1.3501    3.1772 H       1  UNL11       0.0646
     56 H          -1.4907    1.8955    0.1711 H       1  UNL11       0.0502
     57 H          -0.9655    1.2292   -1.4360 H       1  UNL11       0.0502
     58 H          -3.0960    2.4536   -1.5248 H       1  UNL11       0.0742
     59 H          -3.8730    1.2174   -0.4244 H       1  UNL11       0.0742
@<TRIPOS>BOND
     1     1     2    1
     2     1    34    1
     3     1    35    1
     4     2     3    2
     5     2     6    1
     6     3     4    1
     7     4     5    1
     8     4    36    1
     9     4    37    1
    10     5     3    1
    11     5    38    1
    12     5    39    1
    13     6     7    1
    14     7     8    1
    15     7    40    1
    16     7    41    1
    17     8     9    1
    18     8    42    1
    19     8    43    1
    20     9    10    1
    21     9    44    1
    22     9    45    1
    23    10    11   am
    24    10    32    1
    25    11    12    2
    26    11    13    1
    27    13    14   ar
    28    14    15   ar
    29    14    46    1
    30    15    16    1
    31    15    28   ar
    32    16    17    1
    33    16    47    1
    34    16    48    1
    35    17    18    2
    36    18    19    1
    37    19    20   am
    38    19    49    1
    39    20    21    2
    40    20    22    1
    41    22    23   ar
    42    23    24   ar
    43    23    50    1
    44    24    25   ar
    45    24    51    1
    46    25    26   ar
    47    25    52    1
    48    26    27   ar
    49    26    53    1
    50    27    17    1
    51    27    22   ar
    52    28    29   ar
    53    28    54    1
    54    29    30   ar
    55    29    55    1
    56    30    31    1
    57    30    13   ar
    58    32    33    1
    59    32    56    1
    60    32    57    1
    61    33     6    1
    62    33    58    1
    63    33    59    1
@<TRIPOS>MOLECULE
*****
 59 63 0 0 0
SMALL
GASTEIGER

@<TRIPOS>ATOM
      1 N          -6.4380    0.9162    0.5846 N.pl3   1  UNL11      -0.2515
      2 C          -5.6347   -0.1710    0.1407 C.2     1  UNL11       0.2546
      3 C          -5.9917   -1.3967    0.4605 C.2     1  UNL11       0.0151
      4 C          -6.9119   -2.3364    1.1251 C.3     1  UNL11      -0.0202
      5 C          -5.7309   -2.8937    0.4002 C.3     1  UNL11      -0.0202
      6 N          -4.4817    0.0837   -0.6318 N.pl3   1  UNL11      -0.2241
      7 C          -4.1599    1.4831   -0.9217 C.3     1  UNL11       0.0818
      8 C          -2.9295    1.8103   -0.0965 C.3     1  UNL11      -0.0009
      9 C          -1.7116    1.1024   -0.6224 C.3     1  UNL11       0.0185
     10 N          -1.6309   -0.1963   -0.0098 N.am    1  UNL11      -0.2937
     11 C          -0.4756   -0.4501    0.7517 C.2     1  UNL11       0.2495
     12 O          -0.2947   -1.5671    1.3261 O.2     1  UNL11      -0.2699
     13 C           0.6020    0.5279    0.9475 C.ar    1  UNL11       0.0723
     14 C           1.7365    0.2059    1.7080 C.ar    1  UNL11      -0.0433
     15 C           2.7528    1.0935    1.9147 C.ar    1  UNL11      -0.0405
     16 C           3.9199    0.7377    2.7214 C.3     1  UNL11       0.0211
     17 C           4.1575    1.5738    3.9124 C.2     1  UNL11       0.1192
     18 N           3.3077    2.6027    4.1952 N.2     1  UNL11      -0.0073
     19 N           3.4857    3.3096    5.2759 N.am    1  UNL11      -0.0356
     20 C           4.4619    3.1057    6.1593 C.2     1  UNL11       0.4383
     21 O           4.6139    3.8145    7.2136 O.2     1  UNL11      -0.2116
     22 C           5.3455    2.0910    5.9308 C.ar    1  UNL11       0.1004
     23 C           6.3762    1.8579    6.8154 C.ar    1  UNL11      -0.0441
     24 C           7.2728    0.8422    6.5720 C.ar    1  UNL11      -0.0608
     25 C           7.1385    0.0632    5.4471 C.ar    1  UNL11      -0.0611
     26 C           6.1072    0.2994    4.5667 C.ar    1  UNL11      -0.0518
     27 C           5.1760    1.3182    4.7778 C.ar    1  UNL11       0.0192
     28 C           2.6129    2.3465    1.3301 C.ar    1  UNL11      -0.0555
     29 C           1.5045    2.6669    0.5850 C.ar    1  UNL11      -0.0254
     30 C           0.4769    1.7595    0.3805 C.ar    1  UNL11       0.1355
     31 F          -0.6164    2.0701   -0.3525 F       1  UNL11      -0.2047
     32 C          -2.5805   -1.2740   -0.0810 C.3     1  UNL11       0.0510
     33 C          -3.6696   -1.0231   -1.0968 C.3     1  UNL11       0.0960
     34 H          -5.9895    1.7383    1.0834 H       1  UNL11       0.2881
     35 H          -7.4655    0.9843    0.4599 H       1  UNL11       0.2881
     36 H          -7.9134   -2.5425    0.6909 H       1  UNL11       0.0316
     37 H          -6.8707   -2.4446    2.2324 H       1  UNL11       0.0316
     38 H          -4.8583   -3.2568    1.0009 H       1  UNL11       0.0316
     39 H          -5.9126   -3.3933   -0.5760 H       1  UNL11       0.0316
     40 H          -4.9806    2.1232   -0.5478 H       1  UNL11       0.0726
     41 H          -3.9719    1.6541   -1.9968 H       1  UNL11       0.0726
     42 H          -3.1586    1.5556    0.9503 H       1  UNL11       0.0317
     43 H          -2.7431    2.8935   -0.1692 H       1  UNL11       0.0317
     44 H          -1.7787    0.9279   -1.7305 H       1  UNL11       0.0466
     45 H          -0.8072    1.7195   -0.4380 H       1  UNL11       0.0466
     46 H           1.7321   -0.8169    2.1012 H       1  UNL11       0.0629
     47 H           4.8452    0.7845    2.0690 H       1  UNL11       0.0379
     48 H           3.8359   -0.3170    3.0335 H       1  UNL11       0.0379
     49 H           2.8303    4.1204    5.5227 H       1  UNL11       0.4829
     50 H           6.4702    2.4887    7.7093 H       1  UNL11       0.0627
     51 H           8.0679    0.6627    7.2549 H       1  UNL11       0.0618
     52 H           7.8431   -0.7311    5.2601 H       1  UNL11       0.0618
     53 H           6.0144   -0.2910    3.6853 H       1  UNL11       0.0624
     54 H           3.3991    3.0566    1.4803 H       1  UNL11       0.0621
     55 H           1.3861    3.6391    0.1255 H       1  UNL11       0.0646
     56 H          -2.0553   -2.2295   -0.3471 H       1  UNL11       0.0502
     57 H          -3.0954   -1.4287    0.9096 H       1  UNL11       0.0502
     58 H          -4.2885   -1.9379   -1.1793 H       1  UNL11       0.0742
     59 H          -3.2092   -0.7832   -2.0983 H       1  UNL11       0.0742
@<TRIPOS>BOND
     1     1     2    1
     2     1    34    1
     3     1    35    1
     4     2     3    2
     5     2     6    1
     6     3     4    1
     7     4     5    1
     8     4    36    1
     9     4    37    1
    10     5     3    1
    11     5    38    1
    12     5    39    1
    13     6     7    1
    14     7     8    1
    15     7    40    1
    16     7    41    1
    17     8     9    1
    18     8    42    1
    19     8    43    1
    20     9    10    1
    21     9    44    1
    22     9    45    1
    23    10    11   am
    24    10    32    1
    25    11    12    2
    26    11    13    1
    27    13    14   ar
    28    14    15   ar
    29    14    46    1
    30    15    16    1
    31    15    28   ar
    32    16    17    1
    33    16    47    1
    34    16    48    1
    35    17    18    2
    36    18    19    1
    37    19    20   am
    38    19    49    1
    39    20    21    2
    40    20    22    1
    41    22    23   ar
    42    23    24   ar
    43    23    50    1
    44    24    25   ar
    45    24    51    1
    46    25    26   ar
    47    25    52    1
    48    26    27   ar
    49    26    53    1
    50    27    17    1
    51    27    22   ar
    52    28    29   ar
    53    28    54    1
    54    29    30   ar
    55    29    55    1
    56    30    31    1
    57    30    13   ar
    58    32    33    1
    59    32    56    1
    60    32    57    1
    61    33     6    1
    62    33    58    1
    63    33    59    1
@<TRIPOS>MOLECULE
*****
 59 63 0 0 0
SMALL
GASTEIGER

@<TRIPOS>ATOM
      1 N          -3.1006    0.1101   -4.7475 N.pl3   1  UNL11      -0.2515
      2 C          -2.9010    0.9653   -3.6280 C.2     1  UNL11       0.2546
      3 C          -2.3855    2.1600   -3.8251 C.2     1  UNL11       0.0151
      4 C          -1.8420    3.1942   -4.7233 C.3     1  UNL11      -0.0202
      5 C          -1.9146    3.4916   -3.2614 C.3     1  UNL11      -0.0202
      6 N          -3.2611    0.5208   -2.3380 N.pl3   1  UNL11      -0.2241
      7 C          -3.8125   -0.8312   -2.2201 C.3     1  UNL11       0.0818
      8 C          -2.7424   -1.6626   -1.5378 C.3     1  UNL11      -0.0009
      9 C          -2.5812   -1.2724   -0.0946 C.3     1  UNL11       0.0185
     10 N          -1.6309   -0.1963   -0.0098 N.am    1  UNL11      -0.2937
     11 C          -0.4756   -0.4501    0.7517 C.2     1  UNL11       0.2495
     12 O          -0.2947   -1.5671    1.3261 O.2     1  UNL11      -0.2699
     13 C           0.6020    0.5279    0.9475 C.ar    1  UNL11       0.0723
     14 C           1.3661    0.5306    2.1245 C.ar    1  UNL11      -0.0433
     15 C           2.3703    1.4297    2.3409 C.ar    1  UNL11      -0.0405
     16 C           3.1449    1.4194    3.5815 C.3     1  UNL11       0.0211
     17 C           4.5957    1.2029    3.4321 C.2     1  UNL11       0.1192
     18 N           5.4574    1.7599    4.3310 N.2     1  UNL11      -0.0073
     19 N           6.7359    1.5262    4.2310 N.am    1  UNL11      -0.0356
     20 C           7.2928    0.7625    3.2921 C.2     1  UNL11       0.4383
     21 O           8.5520    0.5485    3.2170 O.2     1  UNL11      -0.2116
     22 C           6.4822    0.1781    2.3627 C.ar    1  UNL11       0.1004
     23 C           7.0231   -0.6079    1.3683 C.ar    1  UNL11      -0.0441
     24 C           6.2018   -1.1828    0.4250 C.ar    1  UNL11      -0.0608
     25 C           4.8442   -0.9712    0.4766 C.ar    1  UNL11      -0.0611
     26 C           4.3085   -0.1858    1.4719 C.ar    1  UNL11      -0.0518
     27 C           5.1065    0.4138    2.4482 C.ar    1  UNL11       0.0192
     28 C           2.6063    2.3538    1.3300 C.ar    1  UNL11      -0.0555
     29 C           1.8613    2.3556    0.1762 C.ar    1  UNL11      -0.0254
     30 C           0.8431    1.4392   -0.0350 C.ar    1  UNL11       0.1355
     31 F           0.1069    1.4368   -1.1695 F       1  UNL11      -0.2047
     32 C          -1.7135    1.1121   -0.6011 C.3     1  UNL11       0.0510
     33 C          -3.0715    1.3956   -1.1981 C.3     1  UNL11       0.0960
     34 H          -2.7376   -0.8867   -4.7250 H       1  UNL11       0.2881
     35 H          -3.5899    0.3809   -5.6210 H       1  UNL11       0.2881
     36 H          -2.5188    3.7707   -5.3894 H       1  UNL11       0.0316
     37 H          -0.8094    3.0778   -5.1228 H       1  UNL11       0.0316
     38 H          -0.9696    3.4555   -2.6616 H       1  UNL11       0.0316
     39 H          -2.7035    4.1945   -2.9159 H       1  UNL11       0.0316
     40 H          -3.9509   -1.2501   -3.2342 H       1  UNL11       0.0726
     41 H          -4.7546   -0.8489   -1.6435 H       1  UNL11       0.0726
     42 H          -1.8156   -1.5490   -2.1219 H       1  UNL11       0.0317
     43 H          -3.0560   -2.7182   -1.5648 H       1  UNL11       0.0317
     44 H          -3.5417   -0.8838    0.3404 H       1  UNL11       0.0466
     45 H          -2.2801   -2.1575    0.5044 H       1  UNL11       0.0466
     46 H           1.0903   -0.2566    2.8350 H       1  UNL11       0.0629
     47 H           2.7371    0.6104    4.2623 H       1  UNL11       0.0379
     48 H           2.9766    2.3668    4.1208 H       1  UNL11       0.0379
     49 H           7.4332    1.9485    4.9264 H       1  UNL11       0.4829
     50 H           8.1092   -0.7674    1.3404 H       1  UNL11       0.0627
     51 H           6.6197   -1.7893   -0.3420 H       1  UNL11       0.0618
     52 H           4.2046   -1.4231   -0.2643 H       1  UNL11       0.0618
     53 H           3.2593   -0.0056    1.5006 H       1  UNL11       0.0624
     54 H           3.3897    3.0670    1.4804 H       1  UNL11       0.0621
     55 H           2.0373    3.0703   -0.6167 H       1  UNL11       0.0646
     56 H          -1.4907    1.8955    0.1711 H       1  UNL11       0.0502
     57 H          -0.9655    1.2292   -1.4360 H       1  UNL11       0.0502
     58 H          -3.0960    2.4536   -1.5248 H       1  UNL11       0.0742
     59 H          -3.8730    1.2174   -0.4244 H       1  UNL11       0.0742
@<TRIPOS>BOND
     1     1     2    1
     2     1    34    1
     3     1    35    1
     4     2     3    2
     5     2     6    1
     6     3     4    1
     7     4     5    1
     8     4    36    1
     9     4    37    1
    10     5     3    1
    11     5    38    1
    12     5    39    1
    13     6     7    1
    14     7     8    1
    15     7    40    1
    16     7    41    1
    17     8     9    1
    18     8    42    1
    19     8    43    1
    20     9    10    1
    21     9    44    1
    22     9    45    1
    23    10    11   am
    24    10    32    1
    25    11    12    2
    26    11    13    1
    27    13    14   ar
    28    14    15   ar
    29    14    46    1
    30    15    16    1
    31    15    28   ar
    32    16    17    1
    33    16    47    1
    34    16    48    1
    35    17    18    2
    36    18    19    1
    37    19    20   am
    38    19    49    1
    39    20    21    2
    40    20    22    1
    41    22    23   ar
    42    23    24   ar
    43    23    50    1
    44    24    25   ar
    45    24    51    1
    46    25    26   ar
    47    25    52    1
    48    26    27   ar
    49    26    53    1
    50    27    17    1
    51    27    22   ar
    52    28    29   ar
    53    28    54    1
    54    29    30   ar
    55    29    55    1
    56    30    31    1
    57    30    13   ar
    58    32    33    1
    59    32    56    1
    60    32    57    1
    61    33     6    1
    62    33    58    1
    63    33    59    1
@<TRIPOS>MOLECULE
*****
 59 63 0 0 0
SMALL
GASTEIGER

@<TRIPOS>ATOM
      1 N          -3.1006    0.1101   -4.7475 N.pl3   1  UNL11      -0.2515
      2 C          -2.9010    0.9653   -3.6280 C.2     1  UNL11       0.2546
      3 C          -2.3855    2.1600   -3.8251 C.2     1  UNL11       0.0151
      4 C          -1.8420    3.1942   -4.7233 C.3     1  UNL11      -0.0202
      5 C          -1.9146    3.4916   -3.2614 C.3     1  UNL11      -0.0202
      6 N          -3.2611    0.5208   -2.3380 N.pl3   1  UNL11      -0.2241
      7 C          -3.8125   -0.8312   -2.2201 C.3     1  UNL11       0.0818
      8 C          -2.7424   -1.6626   -1.5378 C.3     1  UNL11      -0.0009
      9 C          -2.5812   -1.2724   -0.0946 C.3     1  UNL11       0.0185
     10 N          -1.6309   -0.1963   -0.0098 N.am    1  UNL11      -0.2937
     11 C          -0.4756   -0.4501    0.7517 C.2     1  UNL11       0.2495
     12 O          -0.2947   -1.5671    1.3261 O.2     1  UNL11      -0.2699
     13 C           0.6020    0.5279    0.9475 C.ar    1  UNL11       0.0723
     14 C           1.9289    0.1095    1.1303 C.ar    1  UNL11      -0.0433
     15 C           2.9529    0.9919    1.3212 C.ar    1  UNL11      -0.0405
     16 C           4.3263    0.5302    1.5213 C.3     1  UNL11       0.0211
     17 C           5.3120    0.9950    0.5281 C.2     1  UNL11       0.1192
     18 N           6.6120    1.1745    0.9004 N.2     1  UNL11      -0.0073
     19 N           7.4950    1.5345    0.0116 N.am    1  UNL11      -0.0356
     20 C           7.2266    1.7499   -1.2753 C.2     1  UNL11       0.4383
     21 O           8.1131    2.1022   -2.1280 O.2     1  UNL11      -0.2116
     22 C           5.9426    1.5877   -1.7087 C.ar    1  UNL11       0.1004
     23 C           5.6240    1.8143   -3.0302 C.ar    1  UNL11      -0.0441
     24 C           4.3245    1.6631   -3.4583 C.ar    1  UNL11      -0.0608
     25 C           3.3476    1.2871   -2.5668 C.ar    1  UNL11      -0.0611
     26 C           3.6707    1.0615   -1.2481 C.ar    1  UNL11      -0.0518
     27 C           4.9766    1.2021   -0.7742 C.ar    1  UNL11       0.0192
     28 C           2.6188    2.3409    1.3255 C.ar    1  UNL11      -0.0555
     29 C           1.3217    2.7558    1.1472 C.ar    1  UNL11      -0.0254
     30 C           0.2880    1.8528    0.9544 C.ar    1  UNL11       0.1355
     31 F          -0.9908    2.2563    0.7782 F       1  UNL11      -0.2047
     32 C          -1.7135    1.1121   -0.6011 C.3     1  UNL11       0.0510
     33 C          -3.0715    1.3956   -1.1981 C.3     1  UNL11       0.0960
     34 H          -2.7376   -0.8867   -4.7250 H       1  UNL11       0.2881
     35 H          -3.5899    0.3809   -5.6210 H       1  UNL11       0.2881
     36 H          -2.5188    3.7707   -5.3894 H       1  UNL11       0.0316
     37 H          -0.8094    3.0778   -5.1228 H       1  UNL11       0.0316
     38 H          -0.9696    3.4555   -2.6616 H       1  UNL11       0.0316
     39 H          -2.7035    4.1945   -2.9159 H       1  UNL11       0.0316
     40 H          -3.9509   -1.2501   -3.2342 H       1  UNL11       0.0726
     41 H          -4.7546   -0.8489   -1.6435 H       1  UNL11       0.0726
     42 H          -1.8156   -1.5490   -2.1219 H       1  UNL11       0.0317
     43 H          -3.0560   -2.7182   -1.5648 H       1  UNL11       0.0317
     44 H          -3.5417   -0.8838    0.3404 H       1  UNL11       0.0466
     45 H          -2.2801   -2.1575    0.5044 H       1  UNL11       0.0466
     46 H           2.0614   -0.9775    1.0912 H       1  UNL11       0.0629
     47 H           4.3361   -0.6029    1.5225 H       1  UNL11       0.0379
     48 H           4.6641    0.8262    2.5287 H       1  UNL11       0.0379
     49 H           8.5230    1.6785    0.2775 H       1  UNL11       0.4829
     50 H           6.4153    2.1141   -3.7300 H       1  UNL11       0.0627
     51 H           4.0792    1.8380   -4.4782 H       1  UNL11       0.0618
     52 H           2.3311    1.1702   -2.9063 H       1  UNL11       0.0618
     53 H           2.9109    0.7894   -0.5533 H       1  UNL11       0.0624
     54 H           3.4076    3.0487    1.4734 H       1  UNL11       0.0621
     55 H           1.0513    3.8033    1.1485 H       1  UNL11       0.0646
     56 H          -1.4907    1.8955    0.1711 H       1  UNL11       0.0502
     57 H          -0.9655    1.2292   -1.4360 H       1  UNL11       0.0502
     58 H          -3.0960    2.4536   -1.5248 H       1  UNL11       0.0742
     59 H          -3.8730    1.2174   -0.4244 H       1  UNL11       0.0742
@<TRIPOS>BOND
     1     1     2    1
     2     1    34    1
     3     1    35    1
     4     2     3    2
     5     2     6    1
     6     3     4    1
     7     4     5    1
     8     4    36    1
     9     4    37    1
    10     5     3    1
    11     5    38    1
    12     5    39    1
    13     6     7    1
    14     7     8    1
    15     7    40    1
    16     7    41    1
    17     8     9    1
    18     8    42    1
    19     8    43    1
    20     9    10    1
    21     9    44    1
    22     9    45    1
    23    10    11   am
    24    10    32    1
    25    11    12    2
    26    11    13    1
    27    13    14   ar
    28    14    15   ar
    29    14    46    1
    30    15    16    1
    31    15    28   ar
    32    16    17    1
    33    16    47    1
    34    16    48    1
    35    17    18    2
    36    18    19    1
    37    19    20   am
    38    19    49    1
    39    20    21    2
    40    20    22    1
    41    22    23   ar
    42    23    24   ar
    43    23    50    1
    44    24    25   ar
    45    24    51    1
    46    25    26   ar
    47    25    52    1
    48    26    27   ar
    49    26    53    1
    50    27    17    1
    51    27    22   ar
    52    28    29   ar
    53    28    54    1
    54    29    30   ar
    55    29    55    1
    56    30    31    1
    57    30    13   ar
    58    32    33    1
    59    32    56    1
    60    32    57    1
    61    33     6    1
    62    33    58    1
    63    33    59    1
@<TRIPOS>MOLECULE
*****
 59 63 0 0 0
SMALL
GASTEIGER

@<TRIPOS>ATOM
      1 N          -3.1006    0.1101   -4.7475 N.pl3   1  UNL11      -0.2515
      2 C          -2.9010    0.9653   -3.6280 C.2     1  UNL11       0.2546
      3 C          -2.3855    2.1600   -3.8251 C.2     1  UNL11       0.0151
      4 C          -1.8420    3.1942   -4.7233 C.3     1  UNL11      -0.0202
      5 C          -1.9146    3.4916   -3.2614 C.3     1  UNL11      -0.0202
      6 N          -3.2611    0.5208   -2.3380 N.pl3   1  UNL11      -0.2241
      7 C          -3.8125   -0.8312   -2.2201 C.3     1  UNL11       0.0818
      8 C          -2.7424   -1.6626   -1.5378 C.3     1  UNL11      -0.0009
      9 C          -2.5812   -1.2724   -0.0946 C.3     1  UNL11       0.0185
     10 N          -1.6309   -0.1963   -0.0098 N.am    1  UNL11      -0.2937
     11 C          -0.4756   -0.4501    0.7517 C.2     1  UNL11       0.2495
     12 O          -0.2947   -1.5671    1.3261 O.2     1  UNL11      -0.2699
     13 C           0.6020    0.5279    0.9475 C.ar    1  UNL11       0.0723
     14 C           0.8843    1.4930   -0.0313 C.ar    1  UNL11      -0.0433
     15 C           1.8828    2.4121    0.1164 C.ar    1  UNL11      -0.0405
     16 C           2.1653    3.4008   -0.9238 C.3     1  UNL11       0.0211
     17 C           1.0138    3.8163   -1.7458 C.2     1  UNL11       0.1192
     18 N          -0.0600    4.4118   -1.1514 N.2     1  UNL11      -0.0073
     19 N          -1.0556    4.8272   -1.8829 N.am    1  UNL11      -0.0356
     20 C          -1.1164    4.7157   -3.2091 C.2     1  UNL11       0.4383
     21 O          -2.1063    5.1330   -3.9040 O.2     1  UNL11      -0.2116
     22 C          -0.0721    4.1272   -3.8616 C.ar    1  UNL11       0.1004
     23 C          -0.1049    3.9822   -5.2317 C.ar    1  UNL11      -0.0441
     24 C           0.9448    3.3746   -5.8826 C.ar    1  UNL11      -0.0608
     25 C           2.0230    2.9135   -5.1648 C.ar    1  UNL11      -0.0611
     26 C           2.0515    3.0610   -3.7966 C.ar    1  UNL11      -0.0518
     27 C           1.0082    3.6727   -3.0988 C.ar    1  UNL11       0.0192
     28 C           2.6164    2.3496    1.2951 C.ar    1  UNL11      -0.0555
     29 C           2.3443    1.4070    2.2563 C.ar    1  UNL11      -0.0254
     30 C           1.3288    0.4771    2.0978 C.ar    1  UNL11       0.1355
     31 F           1.0568   -0.4529    3.0413 F       1  UNL11      -0.2047
     32 C          -1.7135    1.1121   -0.6011 C.3     1  UNL11       0.0510
     33 C          -3.0715    1.3956   -1.1981 C.3     1  UNL11       0.0960
     34 H          -2.7376   -0.8867   -4.7250 H       1  UNL11       0.2881
     35 H          -3.5899    0.3809   -5.6210 H       1  UNL11       0.2881
     36 H          -2.5188    3.7707   -5.3894 H       1  UNL11       0.0316
     37 H          -0.8094    3.0778   -5.1228 H       1  UNL11       0.0316
     38 H          -0.9696    3.4555   -2.6616 H       1  UNL11       0.0316
     39 H          -2.7035    4.1945   -2.9159 H       1  UNL11       0.0316
     40 H          -3.9509   -1.2501   -3.2342 H       1  UNL11       0.0726
     41 H          -4.7546   -0.8489   -1.6435 H       1  UNL11       0.0726
     42 H          -1.8156   -1.5490   -2.1219 H       1  UNL11       0.0317
     43 H          -3.0560   -2.7182   -1.5648 H       1  UNL11       0.0317
     44 H          -3.5417   -0.8838    0.3404 H       1  UNL11       0.0466
     45 H          -2.2801   -2.1575    0.5044 H       1  UNL11       0.0466
     46 H           0.2254    1.4453   -0.9054 H       1  UNL11       0.0629
     47 H           2.9608    2.9875   -1.6169 H       1  UNL11       0.0379
     48 H           2.6172    4.2941   -0.4606 H       1  UNL11       0.0379
     49 H          -1.9089    5.3014   -1.4410 H       1  UNL11       0.4829
     50 H          -0.9730    4.3556   -5.7909 H       1  UNL11       0.0627
     51 H           0.9191    3.2631   -6.9399 H       1  UNL11       0.0618
     52 H           2.8429    2.4381   -5.6785 H       1  UNL11       0.0618
     53 H           2.8773    2.6863   -3.2383 H       1  UNL11       0.0624
     54 H           3.4035    3.0618    1.4301 H       1  UNL11       0.0621
     55 H           2.9091    1.3501    3.1772 H       1  UNL11       0.0646
     56 H          -1.4907    1.8955    0.1711 H       1  UNL11       0.0502
     57 H          -0.9655    1.2292   -1.4360 H       1  UNL11       0.0502
     58 H          -3.0960    2.4536   -1.5248 H       1  UNL11       0.0742
     59 H          -3.8730    1.2174   -0.4244 H       1  UNL11       0.0742
@<TRIPOS>BOND
     1     1     2    1
     2     1    34    1
     3     1    35    1
     4     2     3    2
     5     2     6    1
     6     3     4    1
     7     4     5    1
     8     4    36    1
     9     4    37    1
    10     5     3    1
    11     5    38    1
    12     5    39    1
    13     6     7    1
    14     7     8    1
    15     7    40    1
    16     7    41    1
    17     8     9    1
    18     8    42    1
    19     8    43    1
    20     9    10    1
    21     9    44    1
    22     9    45    1
    23    10    11   am
    24    10    32    1
    25    11    12    2
    26    11    13    1
    27    13    14   ar
    28    14    15   ar
    29    14    46    1
    30    15    16    1
    31    15    28   ar
    32    16    17    1
    33    16    47    1
    34    16    48    1
    35    17    18    2
    36    18    19    1
    37    19    20   am
    38    19    49    1
    39    20    21    2
    40    20    22    1
    41    22    23   ar
    42    23    24   ar
    43    23    50    1
    44    24    25   ar
    45    24    51    1
    46    25    26   ar
    47    25    52    1
    48    26    27   ar
    49    26    53    1
    50    27    17    1
    51    27    22   ar
    52    28    29   ar
    53    28    54    1
    54    29    30   ar
    55    29    55    1
    56    30    31    1
    57    30    13   ar
    58    32    33    1
    59    32    56    1
    60    32    57    1
    61    33     6    1
    62    33    58    1
    63    33    59    1
@<TRIPOS>MOLECULE
*****
 59 63 0 0 0
SMALL
GASTEIGER

@<TRIPOS>ATOM
      1 N          -6.6798   -0.9718   -0.3989 N.pl3   1  UNL11      -0.2515
      2 C          -5.6347   -0.1710    0.1407 C.2     1  UNL11       0.2546
      3 C          -5.7685    0.3125    1.3573 C.2     1  UNL11       0.0151
      4 C          -6.5424    0.4682    2.6017 C.3     1  UNL11      -0.0202
      5 C          -5.2094    1.1355    2.5075 C.3     1  UNL11      -0.0202
      6 N          -4.4817    0.0837   -0.6318 N.pl3   1  UNL11      -0.2241
      7 C          -4.1599    1.4831   -0.9217 C.3     1  UNL11       0.0818
      8 C          -2.9295    1.8103   -0.0965 C.3     1  UNL11      -0.0009
      9 C          -1.7116    1.1024   -0.6224 C.3     1  UNL11       0.0185
     10 N          -1.6309   -0.1963   -0.0098 N.am    1  UNL11      -0.2937
     11 C          -0.4756   -0.4501    0.7517 C.2     1  UNL11       0.2495
     12 O          -0.2947   -1.5671    1.3261 O.2     1  UNL11      -0.2699
     13 C           0.6020    0.5279    0.9475 C.ar    1  UNL11       0.0723
     14 C           1.7365    0.2059    1.7080 C.ar    1  UNL11      -0.0433
     15 C           2.7528    1.0935    1.9147 C.ar    1  UNL11      -0.0405
     16 C           3.9199    0.7377    2.7214 C.3     1  UNL11       0.0211
     17 C           4.2914   -0.6892    2.7206 C.2     1  UNL11       0.1192
     18 N           5.3590   -1.1092    3.4586 N.2     1  UNL11      -0.0073
     19 N           5.6567   -2.3775    3.5009 N.am    1  UNL11      -0.0356
     20 C           4.9832   -3.3330    2.8618 C.2     1  UNL11       0.4383
     21 O           5.2964   -4.5721    2.9209 O.2     1  UNL11      -0.2116
     22 C           3.9050   -2.9750    2.1055 C.ar    1  UNL11       0.1004
     23 C           3.1915   -3.9339    1.4194 C.ar    1  UNL11      -0.0441
     24 C           2.1138   -3.5650    0.6466 C.ar    1  UNL11      -0.0608
     25 C           1.7520   -2.2413    0.5605 C.ar    1  UNL11      -0.0611
     26 C           2.4674   -1.2873    1.2480 C.ar    1  UNL11      -0.0518
     27 C           3.5654   -1.6200    2.0438 C.ar    1  UNL11       0.0192
     28 C           2.6129    2.3465    1.3301 C.ar    1  UNL11      -0.0555
     29 C           1.5045    2.6669    0.5850 C.ar    1  UNL11      -0.0254
     30 C           0.4769    1.7595    0.3805 C.ar    1  UNL11       0.1355
     31 F          -0.6164    2.0701   -0.3525 F       1  UNL11      -0.2047
     32 C          -2.5805   -1.2740   -0.0810 C.3     1  UNL11       0.0510
     33 C          -3.6696   -1.0231   -1.0968 C.3     1  UNL11       0.0960
     34 H          -7.0753   -0.7517   -1.3586 H       1  UNL11       0.2881
     35 H          -7.1091   -1.7868    0.0779 H       1  UNL11       0.2881
     36 H          -6.6333   -0.3782    3.3154 H       1  UNL11       0.0316
     37 H          -7.4105    1.1651    2.6172 H       1  UNL11       0.0316
     38 H          -5.1770    2.2421    2.3389 H       1  UNL11       0.0316
     39 H          -4.3665    0.6883    3.0778 H       1  UNL11       0.0316
     40 H          -4.9806    2.1232   -0.5478 H       1  UNL11       0.0726
     41 H          -3.9719    1.6541   -1.9968 H       1  UNL11       0.0726
     42 H          -3.1586    1.5556    0.9503 H       1  UNL11       0.0317
     43 H          -2.7431    2.8935   -0.1692 H       1  UNL11       0.0317
     44 H          -1.7787    0.9279   -1.7305 H       1  UNL11       0.0466
     45 H          -0.8072    1.7195   -0.4380 H       1  UNL11       0.0466
     46 H           1.7321   -0.8169    2.1012 H       1  UNL11       0.0629
     47 H           3.7343    1.0519    3.7942 H       1  UNL11       0.0379
     48 H           4.7855    1.3346    2.3881 H       1  UNL11       0.0379
     49 H           6.4878   -2.7335    4.0759 H       1  UNL11       0.4829
     50 H           3.4928   -4.9868    1.4981 H       1  UNL11       0.0627
     51 H           1.5635   -4.3052    0.1174 H       1  UNL11       0.0618
     52 H           0.9075   -1.9567   -0.0461 H       1  UNL11       0.0618
     53 H           2.1996   -0.2599    1.1659 H       1  UNL11       0.0624
     54 H           3.3991    3.0566    1.4803 H       1  UNL11       0.0621
     55 H           1.3861    3.6391    0.1255 H       1  UNL11       0.0646
     56 H          -2.0553   -2.2295   -0.3471 H       1  UNL11       0.0502
     57 H          -3.0954   -1.4287    0.9096 H       1  UNL11       0.0502
     58 H          -4.2885   -1.9379   -1.1793 H       1  UNL11       0.0742
     59 H          -3.2092   -0.7832   -2.0983 H       1  UNL11       0.0742
@<TRIPOS>BOND
     1     1     2    1
     2     1    34    1
     3     1    35    1
     4     2     3    2
     5     2     6    1
     6     3     4    1
     7     4     5    1
     8     4    36    1
     9     4    37    1
    10     5     3    1
    11     5    38    1
    12     5    39    1
    13     6     7    1
    14     7     8    1
    15     7    40    1
    16     7    41    1
    17     8     9    1
    18     8    42    1
    19     8    43    1
    20     9    10    1
    21     9    44    1
    22     9    45    1
    23    10    11   am
    24    10    32    1
    25    11    12    2
    26    11    13    1
    27    13    14   ar
    28    14    15   ar
    29    14    46    1
    30    15    16    1
    31    15    28   ar
    32    16    17    1
    33    16    47    1
    34    16    48    1
    35    17    18    2
    36    18    19    1
    37    19    20   am
    38    19    49    1
    39    20    21    2
    40    20    22    1
    41    22    23   ar
    42    23    24   ar
    43    23    50    1
    44    24    25   ar
    45    24    51    1
    46    25    26   ar
    47    25    52    1
    48    26    27   ar
    49    26    53    1
    50    27    17    1
    51    27    22   ar
    52    28    29   ar
    53    28    54    1
    54    29    30   ar
    55    29    55    1
    56    30    31    1
    57    30    13   ar
    58    32    33    1
    59    32    56    1
    60    32    57    1
    61    33     6    1
    62    33    58    1
    63    33    59    1
@<TRIPOS>MOLECULE
*****
 59 63 0 0 0
SMALL
GASTEIGER

@<TRIPOS>ATOM
      1 N          -3.1006    0.1101   -4.7475 N.pl3   1  UNL11      -0.2515
      2 C          -2.9010    0.9653   -3.6280 C.2     1  UNL11       0.2546
      3 C          -2.3855    2.1600   -3.8251 C.2     1  UNL11       0.0151
      4 C          -1.8420    3.1942   -4.7233 C.3     1  UNL11      -0.0202
      5 C          -1.9146    3.4916   -3.2614 C.3     1  UNL11      -0.0202
      6 N          -3.2611    0.5208   -2.3380 N.pl3   1  UNL11      -0.2241
      7 C          -3.8125   -0.8312   -2.2201 C.3     1  UNL11       0.0818
      8 C          -2.7424   -1.6626   -1.5378 C.3     1  UNL11      -0.0009
      9 C          -2.5812   -1.2724   -0.0946 C.3     1  UNL11       0.0185
     10 N          -1.6309   -0.1963   -0.0098 N.am    1  UNL11      -0.2937
     11 C          -0.4756   -0.4501    0.7517 C.2     1  UNL11       0.2495
     12 O          -0.2947   -1.5671    1.3261 O.2     1  UNL11      -0.2699
     13 C           0.6020    0.5279    0.9475 C.ar    1  UNL11       0.0723
     14 C           0.8843    1.4930   -0.0313 C.ar    1  UNL11      -0.0433
     15 C           1.8828    2.4121    0.1164 C.ar    1  UNL11      -0.0405
     16 C           2.1653    3.4008   -0.9238 C.3     1  UNL11       0.0211
     17 C           1.0138    3.8163   -1.7458 C.2     1  UNL11       0.1192
     18 N          -0.0094    2.9413   -1.9656 N.2     1  UNL11      -0.0073
     19 N          -1.0520    3.3242   -2.6477 N.am    1  UNL11      -0.0356
     20 C          -1.2093    4.5408   -3.1673 C.2     1  UNL11       0.4383
     21 O          -2.2442    4.8915   -3.8329 O.2     1  UNL11      -0.2116
     22 C          -0.2185    5.4610   -2.9823 C.ar    1  UNL11       0.1004
     23 C          -0.3396    6.7258   -3.5161 C.ar    1  UNL11      -0.0441
     24 C           0.6696    7.6449   -3.3385 C.ar    1  UNL11      -0.0608
     25 C           1.7958    7.2992   -2.6296 C.ar    1  UNL11      -0.0611
     26 C           1.9120    6.0350   -2.0979 C.ar    1  UNL11      -0.0518
     27 C           0.9108    5.0743   -2.2540 C.ar    1  UNL11       0.0192
     28 C           2.6164    2.3496    1.2951 C.ar    1  UNL11      -0.0555
     29 C           2.3443    1.4070    2.2563 C.ar    1  UNL11      -0.0254
     30 C           1.3288    0.4771    2.0978 C.ar    1  UNL11       0.1355
     31 F           1.0568   -0.4529    3.0413 F       1  UNL11      -0.2047
     32 C          -1.7135    1.1121   -0.6011 C.3     1  UNL11       0.0510
     33 C          -3.0715    1.3956   -1.1981 C.3     1  UNL11       0.0960
     34 H          -2.7376   -0.8867   -4.7250 H       1  UNL11       0.2881
     35 H          -3.5899    0.3809   -5.6210 H       1  UNL11       0.2881
     36 H          -2.5188    3.7707   -5.3894 H       1  UNL11       0.0316
     37 H          -0.8094    3.0778   -5.1228 H       1  UNL11       0.0316
     38 H          -0.9696    3.4555   -2.6616 H       1  UNL11       0.0316
     39 H          -2.7035    4.1945   -2.9159 H       1  UNL11       0.0316
     40 H          -3.9509   -1.2501   -3.2342 H       1  UNL11       0.0726
     41 H          -4.7546   -0.8489   -1.6435 H       1  UNL11       0.0726
     42 H          -1.8156   -1.5490   -2.1219 H       1  UNL11       0.0317
     43 H          -3.0560   -2.7182   -1.5648 H       1  UNL11       0.0317
     44 H          -3.5417   -0.8838    0.3404 H       1  UNL11       0.0466
     45 H          -2.2801   -2.1575    0.5044 H       1  UNL11       0.0466
     46 H           0.2254    1.4453   -0.9054 H       1  UNL11       0.0629
     47 H           2.9608    2.9875   -1.6169 H       1  UNL11       0.0379
     48 H           2.6172    4.2941   -0.4606 H       1  UNL11       0.0379
     49 H          -1.8706    2.6576   -2.8310 H       1  UNL11       0.4829
     50 H          -1.2450    6.9867   -4.0798 H       1  UNL11       0.0627
     51 H           0.5757    8.6207   -3.7505 H       1  UNL11       0.0618
     52 H           2.5839    8.0220   -2.4931 H       1  UNL11       0.0618
     53 H           2.7927    5.7606   -1.5657 H       1  UNL11       0.0624
     54 H           3.4035    3.0618    1.4301 H       1  UNL11       0.0621
     55 H           2.9091    1.3501    3.1772 H       1  UNL11       0.0646
     56 H          -1.4907    1.8955    0.1711 H       1  UNL11       0.0502
     57 H          -0.9655    1.2292   -1.4360 H       1  UNL11       0.0502
     58 H          -3.0960    2.4536   -1.5248 H       1  UNL11       0.0742
     59 H          -3.8730    1.2174   -0.4244 H       1  UNL11       0.0742
@<TRIPOS>BOND
     1     1     2    1
     2     1    34    1
     3     1    35    1
     4     2     3    2
     5     2     6    1
     6     3     4    1
     7     4     5    1
     8     4    36    1
     9     4    37    1
    10     5     3    1
    11     5    38    1
    12     5    39    1
    13     6     7    1
    14     7     8    1
    15     7    40    1
    16     7    41    1
    17     8     9    1
    18     8    42    1
    19     8    43    1
    20     9    10    1
    21     9    44    1
    22     9    45    1
    23    10    11   am
    24    10    32    1
    25    11    12    2
    26    11    13    1
    27    13    14   ar
    28    14    15   ar
    29    14    46    1
    30    15    16    1
    31    15    28   ar
    32    16    17    1
    33    16    47    1
    34    16    48    1
    35    17    18    2
    36    18    19    1
    37    19    20   am
    38    19    49    1
    39    20    21    2
    40    20    22    1
    41    22    23   ar
    42    23    24   ar
    43    23    50    1
    44    24    25   ar
    45    24    51    1
    46    25    26   ar
    47    25    52    1
    48    26    27   ar
    49    26    53    1
    50    27    17    1
    51    27    22   ar
    52    28    29   ar
    53    28    54    1
    54    29    30   ar
    55    29    55    1
    56    30    31    1
    57    30    13   ar
    58    32    33    1
    59    32    56    1
    60    32    57    1
    61    33     6    1
    62    33    58    1
    63    33    59    1
