@<TRIPOS>MOLECULE
*****
 34 36 0 0 0
SMALL
GASTEIGER

@<TRIPOS>ATOM
      1 N          -5.2934    2.7542    0.6864 N.am    1  UNL11      -0.3253
      2 C          -4.0760    2.2029    1.1657 C.2     1  UNL11       0.2416
      3 O          -3.3021    2.9151    1.8272 O.2     1  UNL11      -0.2704
      4 C          -3.7541    0.8190    0.8766 C.ar    1  UNL11       0.0400
      5 C          -4.7358   -0.1361    0.7107 C.ar    1  UNL11      -0.0494
      6 C          -4.4150   -1.4627    0.4332 C.ar    1  UNL11      -0.0576
      7 C          -3.0675   -1.7966    0.3279 C.ar    1  UNL11      -0.0192
      8 C          -2.0745   -0.8665    0.4884 C.ar    1  UNL11       0.1326
      9 O          -0.7582   -1.2470    0.3745 O.3     1  UNL11      -0.4235
     10 C           0.2297   -0.3740   -0.0866 C.ar    1  UNL11       0.3267
     11 N          -0.1419    0.5805   -0.9563 N.ar    1  UNL11      -0.1831
     12 C           0.7145    1.4781   -1.4705 C.ar    1  UNL11       0.1237
     13 N           1.9915    1.3930   -1.0797 N.ar    1  UNL11      -0.2157
     14 C           2.3821    0.4302   -0.1985 C.ar    1  UNL11       0.1666
     15 C           3.7979    0.4085    0.1756 C.ar    1  UNL11       0.0193
     16 C           4.4241   -0.7730    0.5111 C.ar    1  UNL11      -0.0510
     17 C           5.7665   -0.8119    0.8685 C.ar    1  UNL11      -0.0611
     18 C           6.5238    0.3611    0.8967 C.ar    1  UNL11      -0.0617
     19 C           5.8971    1.5418    0.5612 C.ar    1  UNL11      -0.0611
     20 C           4.5635    1.5538    0.2101 C.ar    1  UNL11      -0.0510
     21 N           1.4971   -0.4436    0.2892 N.ar    1  UNL11      -0.1748
     22 C          -2.4073    0.4402    0.7621 C.ar    1  UNL11      -0.0071
     23 H          -5.5693    2.6586   -0.3194 H       1  UNL11       0.1453
     24 H          -5.9585    3.2696    1.2971 H       1  UNL11       0.1453
     25 H          -5.7647    0.1192    0.7912 H       1  UNL11       0.0625
     26 H          -5.1974   -2.1990    0.3061 H       1  UNL11       0.0619
     27 H          -2.8219   -2.8304    0.1117 H       1  UNL11       0.0654
     28 H           0.3317    2.2034   -2.1566 H       1  UNL11       0.1049
     29 H           3.8548   -1.6894    0.4949 H       1  UNL11       0.0625
     30 H           6.2485   -1.7388    1.1292 H       1  UNL11       0.0618
     31 H           7.5647    0.2882    1.1801 H       1  UNL11       0.0618
     32 H           6.4922    2.4417    0.5866 H       1  UNL11       0.0618
     33 H           4.0838    2.4819   -0.0503 H       1  UNL11       0.0625
     34 H          -1.6594    1.1980    0.8946 H       1  UNL11       0.0662
@<TRIPOS>BOND
     1     1     2   am
     2     1    23    1
     3     1    24    1
     4     2     3    2
     5     2     4    1
     6     4     5   ar
     7     5     6   ar
     8     5    25    1
     9     6     7   ar
    10     6    26    1
    11     7     8   ar
    12     7    27    1
    13     8     9    1
    14     8    22   ar
    15     9    10    1
    16    10    11   ar
    17    11    12   ar
    18    12    13   ar
    19    12    28    1
    20    13    14   ar
    21    14    15    1
    22    14    21   ar
    23    15    16   ar
    24    16    17   ar
    25    16    29    1
    26    17    18   ar
    27    17    30    1
    28    18    19   ar
    29    18    31    1
    30    19    20   ar
    31    19    32    1
    32    20    15   ar
    33    20    33    1
    34    21    10   ar
    35    22     4   ar
    36    22    34    1
@<TRIPOS>MOLECULE
*****
 34 36 0 0 0
SMALL
GASTEIGER

@<TRIPOS>ATOM
      1 N          -5.7352   -1.9765    1.3187 N.am    1  UNL11      -0.3253
      2 C          -5.4149   -2.5729    0.0707 C.2     1  UNL11       0.2416
      3 O          -6.2127   -3.3730   -0.4461 O.2     1  UNL11      -0.2704
      4 C          -4.1635   -2.2400   -0.5816 C.ar    1  UNL11       0.0400
      5 C          -4.0354   -2.2475   -1.9552 C.ar    1  UNL11      -0.0494
      6 C          -2.8282   -1.9259   -2.5710 C.ar    1  UNL11      -0.0576
      7 C          -1.7504   -1.5952   -1.7542 C.ar    1  UNL11      -0.0192
      8 C          -1.8525   -1.5806   -0.3881 C.ar    1  UNL11       0.1326
      9 O          -0.7582   -1.2470    0.3745 O.3     1  UNL11      -0.4235
     10 C           0.2297   -0.3740   -0.0866 C.ar    1  UNL11       0.3267
     11 N          -0.1419    0.5805   -0.9563 N.ar    1  UNL11      -0.1831
     12 C           0.7145    1.4781   -1.4705 C.ar    1  UNL11       0.1237
     13 N           1.9915    1.3930   -1.0797 N.ar    1  UNL11      -0.2157
     14 C           2.3821    0.4302   -0.1985 C.ar    1  UNL11       0.1666
     15 C           3.7979    0.4085    0.1756 C.ar    1  UNL11       0.0193
     16 C           4.5453    1.5669    0.1882 C.ar    1  UNL11      -0.0510
     17 C           5.8896    1.5646    0.5405 C.ar    1  UNL11      -0.0611
     18 C           6.5244    0.3723    0.8951 C.ar    1  UNL11      -0.0617
     19 C           5.7765   -0.7852    0.8823 C.ar    1  UNL11      -0.0611
     20 C           4.4438   -0.7564    0.5288 C.ar    1  UNL11      -0.0510
     21 N           1.4971   -0.4436    0.2892 N.ar    1  UNL11      -0.1748
     22 C          -3.0518   -1.9007    0.2056 C.ar    1  UNL11      -0.0071
     23 H          -5.0517   -1.9870    2.1122 H       1  UNL11       0.1453
     24 H          -6.6452   -1.5090    1.5037 H       1  UNL11       0.1453
     25 H          -4.8586   -2.5001   -2.5787 H       1  UNL11       0.0625
     26 H          -2.7451   -1.9368   -3.6496 H       1  UNL11       0.0619
     27 H          -0.8124   -1.3454   -2.2375 H       1  UNL11       0.0654
     28 H           0.3317    2.2034   -2.1566 H       1  UNL11       0.1049
     29 H           4.0717    2.4976   -0.0830 H       1  UNL11       0.0625
     30 H           6.4666    2.4736    0.5478 H       1  UNL11       0.0618
     31 H           7.5712    0.4131    1.1627 H       1  UNL11       0.0618
     32 H           6.2777   -1.7004    1.1582 H       1  UNL11       0.0618
     33 H           3.8689   -1.6667    0.5222 H       1  UNL11       0.0625
     34 H          -3.1723   -1.9008    1.2717 H       1  UNL11       0.0662
@<TRIPOS>BOND
     1     1     2   am
     2     1    23    1
     3     1    24    1
     4     2     3    2
     5     2     4    1
     6     4     5   ar
     7     5     6   ar
     8     5    25    1
     9     6     7   ar
    10     6    26    1
    11     7     8   ar
    12     7    27    1
    13     8     9    1
    14     8    22   ar
    15     9    10    1
    16    10    11   ar
    17    11    12   ar
    18    12    13   ar
    19    12    28    1
    20    13    14   ar
    21    14    15    1
    22    14    21   ar
    23    15    16   ar
    24    16    17   ar
    25    16    29    1
    26    17    18   ar
    27    17    30    1
    28    18    19   ar
    29    18    31    1
    30    19    20   ar
    31    19    32    1
    32    20    15   ar
    33    20    33    1
    34    21    10   ar
    35    22     4   ar
    36    22    34    1
@<TRIPOS>MOLECULE
*****
 34 36 0 0 0
SMALL
GASTEIGER

@<TRIPOS>ATOM
      1 N          -3.1767    2.9852    1.9371 N.am    1  UNL11      -0.3253
      2 C          -4.0760    2.2029    1.1657 C.2     1  UNL11       0.2416
      3 O          -5.1278    2.7159    0.7482 O.2     1  UNL11      -0.2704
      4 C          -3.7541    0.8190    0.8766 C.ar    1  UNL11       0.0400
      5 C          -4.7358   -0.1361    0.7107 C.ar    1  UNL11      -0.0494
      6 C          -4.4150   -1.4627    0.4332 C.ar    1  UNL11      -0.0576
      7 C          -3.0675   -1.7966    0.3279 C.ar    1  UNL11      -0.0192
      8 C          -2.0745   -0.8665    0.4884 C.ar    1  UNL11       0.1326
      9 O          -0.7582   -1.2470    0.3745 O.3     1  UNL11      -0.4235
     10 C           0.2297   -0.3740   -0.0866 C.ar    1  UNL11       0.3267
     11 N          -0.1419    0.5805   -0.9563 N.ar    1  UNL11      -0.1831
     12 C           0.7145    1.4781   -1.4705 C.ar    1  UNL11       0.1237
     13 N           1.9915    1.3930   -1.0797 N.ar    1  UNL11      -0.2157
     14 C           2.3821    0.4302   -0.1985 C.ar    1  UNL11       0.1666
     15 C           3.7979    0.4085    0.1756 C.ar    1  UNL11       0.0193
     16 C           4.7693    0.8412   -0.7018 C.ar    1  UNL11      -0.0510
     17 C           6.1172    0.8275   -0.3634 C.ar    1  UNL11      -0.0611
     18 C           6.5254    0.3688    0.8909 C.ar    1  UNL11      -0.0617
     19 C           5.5538   -0.0635    1.7673 C.ar    1  UNL11      -0.0611
     20 C           4.2226   -0.0399    1.4075 C.ar    1  UNL11      -0.0510
     21 N           1.4971   -0.4436    0.2892 N.ar    1  UNL11      -0.1748
     22 C          -2.4073    0.4402    0.7621 C.ar    1  UNL11      -0.0071
     23 H          -2.8102    2.6373    2.8544 H       1  UNL11       0.1453
     24 H          -2.8437    3.9231    1.6365 H       1  UNL11       0.1453
     25 H          -5.7647    0.1192    0.7912 H       1  UNL11       0.0625
     26 H          -5.1974   -2.1990    0.3061 H       1  UNL11       0.0619
     27 H          -2.8219   -2.8304    0.1117 H       1  UNL11       0.0654
     28 H           0.3317    2.2034   -2.1566 H       1  UNL11       0.1049
     29 H           4.4725    1.1990   -1.6754 H       1  UNL11       0.0625
     30 H           6.8699    1.1671   -1.0543 H       1  UNL11       0.0618
     31 H           7.5831    0.3743    1.1152 H       1  UNL11       0.0618
     32 H           5.8811   -0.4157    2.7335 H       1  UNL11       0.0618
     33 H           3.4717   -0.3800    2.1001 H       1  UNL11       0.0625
     34 H          -1.6594    1.1980    0.8946 H       1  UNL11       0.0662
@<TRIPOS>BOND
     1     1     2   am
     2     1    23    1
     3     1    24    1
     4     2     3    2
     5     2     4    1
     6     4     5   ar
     7     5     6   ar
     8     5    25    1
     9     6     7   ar
    10     6    26    1
    11     7     8   ar
    12     7    27    1
    13     8     9    1
    14     8    22   ar
    15     9    10    1
    16    10    11   ar
    17    11    12   ar
    18    12    13   ar
    19    12    28    1
    20    13    14   ar
    21    14    15    1
    22    14    21   ar
    23    15    16   ar
    24    16    17   ar
    25    16    29    1
    26    17    18   ar
    27    17    30    1
    28    18    19   ar
    29    18    31    1
    30    19    20   ar
    31    19    32    1
    32    20    15   ar
    33    20    33    1
    34    21    10   ar
    35    22     4   ar
    36    22    34    1
@<TRIPOS>MOLECULE
*****
 34 36 0 0 0
SMALL
GASTEIGER

@<TRIPOS>ATOM
      1 N           2.6124   -6.2760    0.5275 N.am    1  UNL11      -0.3253
      2 C           1.9005   -5.2677   -0.1741 C.2     1  UNL11       0.2416
      3 O           2.2137   -5.0032   -1.3469 O.2     1  UNL11      -0.2704
      4 C           0.8199   -4.5626    0.4873 C.ar    1  UNL11       0.0400
      5 C           0.0573   -5.1588    1.4704 C.ar    1  UNL11      -0.0494
      6 C          -0.9783   -4.4718    2.0991 C.ar    1  UNL11      -0.0576
      7 C          -1.2213   -3.1594    1.7033 C.ar    1  UNL11      -0.0192
      8 C          -0.4782   -2.5454    0.7297 C.ar    1  UNL11       0.1326
      9 O          -0.7582   -1.2470    0.3745 O.3     1  UNL11      -0.4235
     10 C           0.2297   -0.3740   -0.0866 C.ar    1  UNL11       0.3267
     11 N          -0.1419    0.5805   -0.9563 N.ar    1  UNL11      -0.1831
     12 C           0.7145    1.4781   -1.4705 C.ar    1  UNL11       0.1237
     13 N           1.9915    1.3930   -1.0797 N.ar    1  UNL11      -0.2157
     14 C           2.3821    0.4302   -0.1985 C.ar    1  UNL11       0.1666
     15 C           3.7979    0.4085    0.1756 C.ar    1  UNL11       0.0193
     16 C           4.7693    0.8412   -0.7018 C.ar    1  UNL11      -0.0510
     17 C           6.1172    0.8275   -0.3634 C.ar    1  UNL11      -0.0611
     18 C           6.5254    0.3688    0.8909 C.ar    1  UNL11      -0.0617
     19 C           5.5538   -0.0635    1.7673 C.ar    1  UNL11      -0.0611
     20 C           4.2226   -0.0399    1.4075 C.ar    1  UNL11      -0.0510
     21 N           1.4971   -0.4436    0.2892 N.ar    1  UNL11      -0.1748
     22 C           0.5417   -3.2372    0.1178 C.ar    1  UNL11      -0.0071
     23 H           3.0055   -6.0938    1.4810 H       1  UNL11       0.1453
     24 H           2.7757   -7.2261    0.1383 H       1  UNL11       0.1453
     25 H           0.2432   -6.1611    1.7726 H       1  UNL11       0.0625
     26 H          -1.5665   -4.9545    2.8682 H       1  UNL11       0.0619
     27 H          -2.0284   -2.6279    2.1952 H       1  UNL11       0.0654
     28 H           0.3317    2.2034   -2.1566 H       1  UNL11       0.1049
     29 H           4.4725    1.1990   -1.6754 H       1  UNL11       0.0625
     30 H           6.8699    1.1671   -1.0543 H       1  UNL11       0.0618
     31 H           7.5831    0.3743    1.1152 H       1  UNL11       0.0618
     32 H           5.8811   -0.4157    2.7335 H       1  UNL11       0.0618
     33 H           3.4717   -0.3800    2.1001 H       1  UNL11       0.0625
     34 H           1.1462   -2.7920   -0.6486 H       1  UNL11       0.0662
@<TRIPOS>BOND
     1     1     2   am
     2     1    23    1
     3     1    24    1
     4     2     3    2
     5     2     4    1
     6     4     5   ar
     7     5     6   ar
     8     5    25    1
     9     6     7   ar
    10     6    26    1
    11     7     8   ar
    12     7    27    1
    13     8     9    1
    14     8    22   ar
    15     9    10    1
    16    10    11   ar
    17    11    12   ar
    18    12    13   ar
    19    12    28    1
    20    13    14   ar
    21    14    15    1
    22    14    21   ar
    23    15    16   ar
    24    16    17   ar
    25    16    29    1
    26    17    18   ar
    27    17    30    1
    28    18    19   ar
    29    18    31    1
    30    19    20   ar
    31    19    32    1
    32    20    15   ar
    33    20    33    1
    34    21    10   ar
    35    22     4   ar
    36    22    34    1
@<TRIPOS>MOLECULE
*****
 34 36 0 0 0
SMALL
GASTEIGER

@<TRIPOS>ATOM
      1 N          -5.2934    2.7542    0.6864 N.am    1  UNL11      -0.3253
      2 C          -4.0760    2.2029    1.1657 C.2     1  UNL11       0.2416
      3 O          -3.3021    2.9151    1.8272 O.2     1  UNL11      -0.2704
      4 C          -3.7541    0.8190    0.8766 C.ar    1  UNL11       0.0400
      5 C          -4.7358   -0.1361    0.7107 C.ar    1  UNL11      -0.0494
      6 C          -4.4150   -1.4627    0.4332 C.ar    1  UNL11      -0.0576
      7 C          -3.0675   -1.7966    0.3279 C.ar    1  UNL11      -0.0192
      8 C          -2.0745   -0.8665    0.4884 C.ar    1  UNL11       0.1326
      9 O          -0.7582   -1.2470    0.3745 O.3     1  UNL11      -0.4235
     10 C           0.2297   -0.3740   -0.0866 C.ar    1  UNL11       0.3267
     11 N          -0.1419    0.5805   -0.9563 N.ar    1  UNL11      -0.1831
     12 C           0.7145    1.4781   -1.4705 C.ar    1  UNL11       0.1237
     13 N           1.9915    1.3930   -1.0797 N.ar    1  UNL11      -0.2157
     14 C           2.3821    0.4302   -0.1985 C.ar    1  UNL11       0.1666
     15 C           3.7979    0.4085    0.1756 C.ar    1  UNL11       0.0193
     16 C           4.7693    0.8412   -0.7018 C.ar    1  UNL11      -0.0510
     17 C           6.1172    0.8275   -0.3634 C.ar    1  UNL11      -0.0611
     18 C           6.5254    0.3688    0.8909 C.ar    1  UNL11      -0.0617
     19 C           5.5538   -0.0635    1.7673 C.ar    1  UNL11      -0.0611
     20 C           4.2226   -0.0399    1.4075 C.ar    1  UNL11      -0.0510
     21 N           1.4971   -0.4436    0.2892 N.ar    1  UNL11      -0.1748
     22 C          -2.4073    0.4402    0.7621 C.ar    1  UNL11      -0.0071
     23 H          -5.5693    2.6586   -0.3194 H       1  UNL11       0.1453
     24 H          -5.9585    3.2696    1.2971 H       1  UNL11       0.1453
     25 H          -5.7647    0.1192    0.7912 H       1  UNL11       0.0625
     26 H          -5.1974   -2.1990    0.3061 H       1  UNL11       0.0619
     27 H          -2.8219   -2.8304    0.1117 H       1  UNL11       0.0654
     28 H           0.3317    2.2034   -2.1566 H       1  UNL11       0.1049
     29 H           4.4725    1.1990   -1.6754 H       1  UNL11       0.0625
     30 H           6.8699    1.1671   -1.0543 H       1  UNL11       0.0618
     31 H           7.5831    0.3743    1.1152 H       1  UNL11       0.0618
     32 H           5.8811   -0.4157    2.7335 H       1  UNL11       0.0618
     33 H           3.4717   -0.3800    2.1001 H       1  UNL11       0.0625
     34 H          -1.6594    1.1980    0.8946 H       1  UNL11       0.0662
@<TRIPOS>BOND
     1     1     2   am
     2     1    23    1
     3     1    24    1
     4     2     3    2
     5     2     4    1
     6     4     5   ar
     7     5     6   ar
     8     5    25    1
     9     6     7   ar
    10     6    26    1
    11     7     8   ar
    12     7    27    1
    13     8     9    1
    14     8    22   ar
    15     9    10    1
    16    10    11   ar
    17    11    12   ar
    18    12    13   ar
    19    12    28    1
    20    13    14   ar
    21    14    15    1
    22    14    21   ar
    23    15    16   ar
    24    16    17   ar
    25    16    29    1
    26    17    18   ar
    27    17    30    1
    28    18    19   ar
    29    18    31    1
    30    19    20   ar
    31    19    32    1
    32    20    15   ar
    33    20    33    1
    34    21    10   ar
    35    22     4   ar
    36    22    34    1
@<TRIPOS>MOLECULE
*****
 34 36 0 0 0
SMALL
GASTEIGER

@<TRIPOS>ATOM
      1 N          -3.5849   -2.8773   -4.7272 N.am    1  UNL11      -0.3253
      2 C          -2.7737   -1.9866   -3.9759 C.2     1  UNL11       0.2416
      3 O          -1.9734   -1.2431   -4.5679 O.2     1  UNL11      -0.2704
      4 C          -2.8911   -1.9575   -2.5310 C.ar    1  UNL11       0.0400
      5 C          -4.0766   -2.2568   -1.8920 C.ar    1  UNL11      -0.0494
      6 C          -4.1778   -2.2257   -0.5032 C.ar    1  UNL11      -0.0576
      7 C          -3.0410   -1.8819    0.2232 C.ar    1  UNL11      -0.0192
      8 C          -1.8525   -1.5806   -0.3881 C.ar    1  UNL11       0.1326
      9 O          -0.7582   -1.2470    0.3745 O.3     1  UNL11      -0.4235
     10 C           0.2297   -0.3740   -0.0866 C.ar    1  UNL11       0.3267
     11 N          -0.1419    0.5805   -0.9563 N.ar    1  UNL11      -0.1831
     12 C           0.7145    1.4781   -1.4705 C.ar    1  UNL11       0.1237
     13 N           1.9915    1.3930   -1.0797 N.ar    1  UNL11      -0.2157
     14 C           2.3821    0.4302   -0.1985 C.ar    1  UNL11       0.1666
     15 C           3.7979    0.4085    0.1756 C.ar    1  UNL11       0.0193
     16 C           4.4241   -0.7730    0.5111 C.ar    1  UNL11      -0.0510
     17 C           5.7665   -0.8119    0.8685 C.ar    1  UNL11      -0.0611
     18 C           6.5238    0.3611    0.8967 C.ar    1  UNL11      -0.0617
     19 C           5.8971    1.5418    0.5612 C.ar    1  UNL11      -0.0611
     20 C           4.5635    1.5538    0.2101 C.ar    1  UNL11      -0.0510
     21 N           1.4971   -0.4436    0.2892 N.ar    1  UNL11      -0.1748
     22 C          -1.7682   -1.6157   -1.7610 C.ar    1  UNL11      -0.0071
     23 H          -3.6412   -3.8935   -4.4800 H       1  UNL11       0.1453
     24 H          -4.1519   -2.5721   -5.5434 H       1  UNL11       0.1453
     25 H          -4.9446   -2.5193   -2.4470 H       1  UNL11       0.0625
     26 H          -5.1152   -2.4632   -0.0182 H       1  UNL11       0.0619
     27 H          -3.1239   -1.8589    1.3041 H       1  UNL11       0.0654
     28 H           0.3317    2.2034   -2.1566 H       1  UNL11       0.1049
     29 H           3.8548   -1.6894    0.4949 H       1  UNL11       0.0625
     30 H           6.2485   -1.7388    1.1292 H       1  UNL11       0.0618
     31 H           7.5647    0.2882    1.1801 H       1  UNL11       0.0618
     32 H           6.4922    2.4417    0.5866 H       1  UNL11       0.0618
     33 H           4.0838    2.4819   -0.0503 H       1  UNL11       0.0625
     34 H          -0.8560   -1.3865   -2.2772 H       1  UNL11       0.0662
@<TRIPOS>BOND
     1     1     2   am
     2     1    23    1
     3     1    24    1
     4     2     3    2
     5     2     4    1
     6     4     5   ar
     7     5     6   ar
     8     5    25    1
     9     6     7   ar
    10     6    26    1
    11     7     8   ar
    12     7    27    1
    13     8     9    1
    14     8    22   ar
    15     9    10    1
    16    10    11   ar
    17    11    12   ar
    18    12    13   ar
    19    12    28    1
    20    13    14   ar
    21    14    15    1
    22    14    21   ar
    23    15    16   ar
    24    16    17   ar
    25    16    29    1
    26    17    18   ar
    27    17    30    1
    28    18    19   ar
    29    18    31    1
    30    19    20   ar
    31    19    32    1
    32    20    15   ar
    33    20    33    1
    34    21    10   ar
    35    22     4   ar
    36    22    34    1
@<TRIPOS>MOLECULE
*****
 34 36 0 0 0
SMALL
GASTEIGER

@<TRIPOS>ATOM
      1 N           2.2234   -4.9515   -1.5200 N.am    1  UNL11      -0.3253
      2 C           1.9005   -5.2677   -0.1741 C.2     1  UNL11       0.2416
      3 O           2.5494   -6.1455    0.4193 O.2     1  UNL11      -0.2704
      4 C           0.8199   -4.5626    0.4873 C.ar    1  UNL11       0.0400
      5 C           0.0573   -5.1588    1.4704 C.ar    1  UNL11      -0.0494
      6 C          -0.9783   -4.4718    2.0991 C.ar    1  UNL11      -0.0576
      7 C          -1.2213   -3.1594    1.7033 C.ar    1  UNL11      -0.0192
      8 C          -0.4782   -2.5454    0.7297 C.ar    1  UNL11       0.1326
      9 O          -0.7582   -1.2470    0.3745 O.3     1  UNL11      -0.4235
     10 C           0.2297   -0.3740   -0.0866 C.ar    1  UNL11       0.3267
     11 N          -0.1419    0.5805   -0.9563 N.ar    1  UNL11      -0.1831
     12 C           0.7145    1.4781   -1.4705 C.ar    1  UNL11       0.1237
     13 N           1.9915    1.3930   -1.0797 N.ar    1  UNL11      -0.2157
     14 C           2.3821    0.4302   -0.1985 C.ar    1  UNL11       0.1666
     15 C           3.7979    0.4085    0.1756 C.ar    1  UNL11       0.0193
     16 C           4.1953   -0.0317    1.4202 C.ar    1  UNL11      -0.0510
     17 C           5.5341   -0.0589    1.7918 C.ar    1  UNL11      -0.0611
     18 C           6.5227    0.3647    0.9010 C.ar    1  UNL11      -0.0617
     19 C           6.1247    0.8045   -0.3429 C.ar    1  UNL11      -0.0611
     20 C           4.7894    0.8219   -0.6876 C.ar    1  UNL11      -0.0510
     21 N           1.4971   -0.4436    0.2892 N.ar    1  UNL11      -0.1748
     22 C           0.5417   -3.2372    0.1178 C.ar    1  UNL11      -0.0071
     23 H           1.4819   -4.9205   -2.2591 H       1  UNL11       0.1453
     24 H           3.1917   -4.7393   -1.8331 H       1  UNL11       0.1453
     25 H           0.2432   -6.1611    1.7726 H       1  UNL11       0.0625
     26 H          -1.5665   -4.9545    2.8682 H       1  UNL11       0.0619
     27 H          -2.0284   -2.6279    2.1952 H       1  UNL11       0.0654
     28 H           0.3317    2.2034   -2.1566 H       1  UNL11       0.1049
     29 H           3.4453   -0.3628    2.1217 H       1  UNL11       0.0625
     30 H           5.8364   -0.4041    2.7659 H       1  UNL11       0.0618
     31 H           7.5525    0.3279    1.2285 H       1  UNL11       0.0618
     32 H           6.8973    1.1293   -1.0228 H       1  UNL11       0.0618
     33 H           4.4896    1.1674   -1.6622 H       1  UNL11       0.0625
     34 H           1.1462   -2.7920   -0.6486 H       1  UNL11       0.0662
@<TRIPOS>BOND
     1     1     2   am
     2     1    23    1
     3     1    24    1
     4     2     3    2
     5     2     4    1
     6     4     5   ar
     7     5     6   ar
     8     5    25    1
     9     6     7   ar
    10     6    26    1
    11     7     8   ar
    12     7    27    1
    13     8     9    1
    14     8    22   ar
    15     9    10    1
    16    10    11   ar
    17    11    12   ar
    18    12    13   ar
    19    12    28    1
    20    13    14   ar
    21    14    15    1
    22    14    21   ar
    23    15    16   ar
    24    16    17   ar
    25    16    29    1
    26    17    18   ar
    27    17    30    1
    28    18    19   ar
    29    18    31    1
    30    19    20   ar
    31    19    32    1
    32    20    15   ar
    33    20    33    1
    34    21    10   ar
    35    22     4   ar
    36    22    34    1
@<TRIPOS>MOLECULE
*****
 34 36 0 0 0
SMALL
GASTEIGER

@<TRIPOS>ATOM
      1 N          -4.4835   -2.0926    3.7805 N.am    1  UNL11      -0.3253
      2 C          -5.0680   -1.6478    2.5655 C.2     1  UNL11       0.2416
      3 O          -6.2896   -1.7891    2.3882 O.2     1  UNL11      -0.2704
      4 C          -4.2321   -1.0361    1.5509 C.ar    1  UNL11       0.0400
      5 C          -4.7203   -0.0759    0.6889 C.ar    1  UNL11      -0.0494
      6 C          -3.9080    0.5050   -0.2820 C.ar    1  UNL11      -0.0576
      7 C          -2.5827    0.0851   -0.3560 C.ar    1  UNL11      -0.0192
      8 C          -2.0745   -0.8665    0.4884 C.ar    1  UNL11       0.1326
      9 O          -0.7582   -1.2470    0.3745 O.3     1  UNL11      -0.4235
     10 C           0.2297   -0.3740   -0.0866 C.ar    1  UNL11       0.3267
     11 N          -0.1419    0.5805   -0.9563 N.ar    1  UNL11      -0.1831
     12 C           0.7145    1.4781   -1.4705 C.ar    1  UNL11       0.1237
     13 N           1.9915    1.3930   -1.0797 N.ar    1  UNL11      -0.2157
     14 C           2.3821    0.4302   -0.1985 C.ar    1  UNL11       0.1666
     15 C           3.7979    0.4085    0.1756 C.ar    1  UNL11       0.0193
     16 C           4.5453    1.5669    0.1882 C.ar    1  UNL11      -0.0510
     17 C           5.8896    1.5646    0.5405 C.ar    1  UNL11      -0.0611
     18 C           6.5244    0.3723    0.8951 C.ar    1  UNL11      -0.0617
     19 C           5.7765   -0.7852    0.8823 C.ar    1  UNL11      -0.0611
     20 C           4.4438   -0.7564    0.5288 C.ar    1  UNL11      -0.0510
     21 N           1.4971   -0.4436    0.2892 N.ar    1  UNL11      -0.1748
     22 C          -2.8894   -1.4312    1.4425 C.ar    1  UNL11      -0.0071
     23 H          -3.6366   -2.7088    3.7773 H       1  UNL11       0.1453
     24 H          -4.8588   -1.8343    4.7150 H       1  UNL11       0.1453
     25 H          -5.7324    0.2446    0.7457 H       1  UNL11       0.0625
     26 H          -4.3071    1.2567   -0.9499 H       1  UNL11       0.0619
     27 H          -1.9536    0.5399   -1.1132 H       1  UNL11       0.0654
     28 H           0.3317    2.2034   -2.1566 H       1  UNL11       0.1049
     29 H           4.0717    2.4976   -0.0830 H       1  UNL11       0.0625
     30 H           6.4666    2.4736    0.5478 H       1  UNL11       0.0618
     31 H           7.5712    0.4131    1.1627 H       1  UNL11       0.0618
     32 H           6.2777   -1.7004    1.1582 H       1  UNL11       0.0618
     33 H           3.8689   -1.6667    0.5222 H       1  UNL11       0.0625
     34 H          -2.5294   -2.1792    2.1222 H       1  UNL11       0.0662
@<TRIPOS>BOND
     1     1     2   am
     2     1    23    1
     3     1    24    1
     4     2     3    2
     5     2     4    1
     6     4     5   ar
     7     5     6   ar
     8     5    25    1
     9     6     7   ar
    10     6    26    1
    11     7     8   ar
    12     7    27    1
    13     8     9    1
    14     8    22   ar
    15     9    10    1
    16    10    11   ar
    17    11    12   ar
    18    12    13   ar
    19    12    28    1
    20    13    14   ar
    21    14    15    1
    22    14    21   ar
    23    15    16   ar
    24    16    17   ar
    25    16    29    1
    26    17    18   ar
    27    17    30    1
    28    18    19   ar
    29    18    31    1
    30    19    20   ar
    31    19    32    1
    32    20    15   ar
    33    20    33    1
    34    21    10   ar
    35    22     4   ar
    36    22    34    1
@<TRIPOS>MOLECULE
*****
 34 36 0 0 0
SMALL
GASTEIGER

@<TRIPOS>ATOM
      1 N          -2.3007   -4.3864    4.1118 N.am    1  UNL11      -0.3253
      2 C          -1.7268   -5.1623    3.0704 C.2     1  UNL11       0.2416
      3 O          -1.9177   -6.3898    3.0475 O.2     1  UNL11      -0.2704
      4 C          -0.9275   -4.5118    2.0504 C.ar    1  UNL11       0.0400
      5 C           0.1140   -5.1605    1.4197 C.ar    1  UNL11      -0.0494
      6 C           0.8751   -4.5257    0.4411 C.ar    1  UNL11      -0.0576
      7 C           0.5511   -3.2109    0.1177 C.ar    1  UNL11      -0.0192
      8 C          -0.4782   -2.5454    0.7297 C.ar    1  UNL11       0.1326
      9 O          -0.7582   -1.2470    0.3745 O.3     1  UNL11      -0.4235
     10 C           0.2297   -0.3740   -0.0866 C.ar    1  UNL11       0.3267
     11 N          -0.1419    0.5805   -0.9563 N.ar    1  UNL11      -0.1831
     12 C           0.7145    1.4781   -1.4705 C.ar    1  UNL11       0.1237
     13 N           1.9915    1.3930   -1.0797 N.ar    1  UNL11      -0.2157
     14 C           2.3821    0.4302   -0.1985 C.ar    1  UNL11       0.1666
     15 C           3.7979    0.4085    0.1756 C.ar    1  UNL11       0.0193
     16 C           4.1953   -0.0317    1.4202 C.ar    1  UNL11      -0.0510
     17 C           5.5341   -0.0589    1.7918 C.ar    1  UNL11      -0.0611
     18 C           6.5227    0.3647    0.9010 C.ar    1  UNL11      -0.0617
     19 C           6.1247    0.8045   -0.3429 C.ar    1  UNL11      -0.0611
     20 C           4.7894    0.8219   -0.6876 C.ar    1  UNL11      -0.0510
     21 N           1.4971   -0.4436    0.2892 N.ar    1  UNL11      -0.1748
     22 C          -1.2211   -3.1860    1.6946 C.ar    1  UNL11      -0.0071
     23 H          -1.7190   -3.7158    4.6675 H       1  UNL11       0.1453
     24 H          -3.3062   -4.4436    4.3696 H       1  UNL11       0.1453
     25 H           0.3611   -6.1646    1.6668 H       1  UNL11       0.0625
     26 H           1.6884   -5.0492   -0.0435 H       1  UNL11       0.0619
     27 H           1.1460   -2.7203   -0.6447 H       1  UNL11       0.0654
     28 H           0.3317    2.2034   -2.1566 H       1  UNL11       0.1049
     29 H           3.4453   -0.3628    2.1217 H       1  UNL11       0.0625
     30 H           5.8364   -0.4041    2.7659 H       1  UNL11       0.0618
     31 H           7.5525    0.3279    1.2285 H       1  UNL11       0.0618
     32 H           6.8973    1.1293   -1.0228 H       1  UNL11       0.0618
     33 H           4.4896    1.1674   -1.6622 H       1  UNL11       0.0625
     34 H          -2.0348   -2.6995    2.1969 H       1  UNL11       0.0662
@<TRIPOS>BOND
     1     1     2   am
     2     1    23    1
     3     1    24    1
     4     2     3    2
     5     2     4    1
     6     4     5   ar
     7     5     6   ar
     8     5    25    1
     9     6     7   ar
    10     6    26    1
    11     7     8   ar
    12     7    27    1
    13     8     9    1
    14     8    22   ar
    15     9    10    1
    16    10    11   ar
    17    11    12   ar
    18    12    13   ar
    19    12    28    1
    20    13    14   ar
    21    14    15    1
    22    14    21   ar
    23    15    16   ar
    24    16    17   ar
    25    16    29    1
    26    17    18   ar
    27    17    30    1
    28    18    19   ar
    29    18    31    1
    30    19    20   ar
    31    19    32    1
    32    20    15   ar
    33    20    33    1
    34    21    10   ar
    35    22     4   ar
    36    22    34    1
@<TRIPOS>MOLECULE
*****
 34 36 0 0 0
SMALL
GASTEIGER

@<TRIPOS>ATOM
      1 N          -1.4324   -6.6832    3.1067 N.am    1  UNL11      -0.3253
      2 C          -1.7141   -5.6490    2.1757 C.2     1  UNL11       0.2416
      3 O          -2.6305   -5.8031    1.3510 O.2     1  UNL11      -0.2704
      4 C          -0.9296   -4.4299    2.2010 C.ar    1  UNL11       0.0400
      5 C           0.0904   -4.2408    3.1105 C.ar    1  UNL11      -0.0494
      6 C           0.8377   -3.0655    3.1255 C.ar    1  UNL11      -0.0576
      7 C           0.5222   -2.0834    2.1906 C.ar    1  UNL11      -0.0192
      8 C          -0.4859   -2.2474    1.2775 C.ar    1  UNL11       0.1326
      9 O          -0.7582   -1.2470    0.3745 O.3     1  UNL11      -0.4235
     10 C           0.2297   -0.3740   -0.0866 C.ar    1  UNL11       0.3267
     11 N          -0.1419    0.5805   -0.9563 N.ar    1  UNL11      -0.1831
     12 C           0.7145    1.4781   -1.4705 C.ar    1  UNL11       0.1237
     13 N           1.9915    1.3930   -1.0797 N.ar    1  UNL11      -0.2157
     14 C           2.3821    0.4302   -0.1985 C.ar    1  UNL11       0.1666
     15 C           3.7979    0.4085    0.1756 C.ar    1  UNL11       0.0193
     16 C           4.1953   -0.0317    1.4202 C.ar    1  UNL11      -0.0510
     17 C           5.5341   -0.0589    1.7918 C.ar    1  UNL11      -0.0611
     18 C           6.5227    0.3647    0.9010 C.ar    1  UNL11      -0.0617
     19 C           6.1247    0.8045   -0.3429 C.ar    1  UNL11      -0.0611
     20 C           4.7894    0.8219   -0.6876 C.ar    1  UNL11      -0.0510
     21 N           1.4971   -0.4436    0.2892 N.ar    1  UNL11      -0.1748
     22 C          -1.2152   -3.4142    1.2750 C.ar    1  UNL11      -0.0071
     23 H          -0.4563   -7.0399    3.2370 H       1  UNL11       0.1453
     24 H          -2.1654   -7.1291    3.6938 H       1  UNL11       0.1453
     25 H           0.3312   -4.9910    3.8243 H       1  UNL11       0.0625
     26 H           1.6342   -2.9336    3.8457 H       1  UNL11       0.0619
     27 H           1.1063   -1.1699    2.2056 H       1  UNL11       0.0654
     28 H           0.3317    2.2034   -2.1566 H       1  UNL11       0.1049
     29 H           3.4453   -0.3628    2.1217 H       1  UNL11       0.0625
     30 H           5.8364   -0.4041    2.7659 H       1  UNL11       0.0618
     31 H           7.5525    0.3279    1.2285 H       1  UNL11       0.0618
     32 H           6.8973    1.1293   -1.0228 H       1  UNL11       0.0618
     33 H           4.4896    1.1674   -1.6622 H       1  UNL11       0.0625
     34 H          -2.0122   -3.5809    0.5764 H       1  UNL11       0.0662
@<TRIPOS>BOND
     1     1     2   am
     2     1    23    1
     3     1    24    1
     4     2     3    2
     5     2     4    1
     6     4     5   ar
     7     5     6   ar
     8     5    25    1
     9     6     7   ar
    10     6    26    1
    11     7     8   ar
    12     7    27    1
    13     8     9    1
    14     8    22   ar
    15     9    10    1
    16    10    11   ar
    17    11    12   ar
    18    12    13   ar
    19    12    28    1
    20    13    14   ar
    21    14    15    1
    22    14    21   ar
    23    15    16   ar
    24    16    17   ar
    25    16    29    1
    26    17    18   ar
    27    17    30    1
    28    18    19   ar
    29    18    31    1
    30    19    20   ar
    31    19    32    1
    32    20    15   ar
    33    20    33    1
    34    21    10   ar
    35    22     4   ar
    36    22    34    1
@<TRIPOS>MOLECULE
*****
 34 36 0 0 0
SMALL
GASTEIGER

@<TRIPOS>ATOM
      1 N           3.4748   -3.9740    0.4942 N.am    1  UNL11      -0.3253
      2 C           2.4450   -4.8475    0.9329 C.2     1  UNL11       0.2416
      3 O           2.7263   -6.0191    1.2361 O.2     1  UNL11      -0.2704
      4 C           1.0822   -4.3601    1.0206 C.ar    1  UNL11       0.0400
      5 C           0.0488   -5.1654    1.4531 C.ar    1  UNL11      -0.0494
      6 C          -1.2566   -4.6865    1.5335 C.ar    1  UNL11      -0.0576
      7 C          -1.4874   -3.3647    1.1623 C.ar    1  UNL11      -0.0192
      8 C          -0.4782   -2.5454    0.7297 C.ar    1  UNL11       0.1326
      9 O          -0.7582   -1.2470    0.3745 O.3     1  UNL11      -0.4235
     10 C           0.2297   -0.3740   -0.0866 C.ar    1  UNL11       0.3267
     11 N          -0.1419    0.5805   -0.9563 N.ar    1  UNL11      -0.1831
     12 C           0.7145    1.4781   -1.4705 C.ar    1  UNL11       0.1237
     13 N           1.9915    1.3930   -1.0797 N.ar    1  UNL11      -0.2157
     14 C           2.3821    0.4302   -0.1985 C.ar    1  UNL11       0.1666
     15 C           3.7979    0.4085    0.1756 C.ar    1  UNL11       0.0193
     16 C           4.1953   -0.0317    1.4202 C.ar    1  UNL11      -0.0510
     17 C           5.5341   -0.0589    1.7918 C.ar    1  UNL11      -0.0611
     18 C           6.5227    0.3647    0.9010 C.ar    1  UNL11      -0.0617
     19 C           6.1247    0.8045   -0.3429 C.ar    1  UNL11      -0.0611
     20 C           4.7894    0.8219   -0.6876 C.ar    1  UNL11      -0.0510
     21 N           1.4971   -0.4436    0.2892 N.ar    1  UNL11      -0.1748
     22 C           0.8063   -3.0330    0.6558 C.ar    1  UNL11      -0.0071
     23 H           3.3712   -3.4189   -0.3879 H       1  UNL11       0.1453
     24 H           4.3648   -3.8442    1.0156 H       1  UNL11       0.1453
     25 H           0.2254   -6.1748    1.7365 H       1  UNL11       0.0625
     26 H          -2.0552   -5.3316    1.8748 H       1  UNL11       0.0619
     27 H          -2.5051   -2.9957    1.2264 H       1  UNL11       0.0654
     28 H           0.3317    2.2034   -2.1566 H       1  UNL11       0.1049
     29 H           3.4453   -0.3628    2.1217 H       1  UNL11       0.0625
     30 H           5.8364   -0.4041    2.7659 H       1  UNL11       0.0618
     31 H           7.5525    0.3279    1.2285 H       1  UNL11       0.0618
     32 H           6.8973    1.1293   -1.0228 H       1  UNL11       0.0618
     33 H           4.4896    1.1674   -1.6622 H       1  UNL11       0.0625
     34 H           1.6238   -2.4234    0.3222 H       1  UNL11       0.0662
@<TRIPOS>BOND
     1     1     2   am
     2     1    23    1
     3     1    24    1
     4     2     3    2
     5     2     4    1
     6     4     5   ar
     7     5     6   ar
     8     5    25    1
     9     6     7   ar
    10     6    26    1
    11     7     8   ar
    12     7    27    1
    13     8     9    1
    14     8    22   ar
    15     9    10    1
    16    10    11   ar
    17    11    12   ar
    18    12    13   ar
    19    12    28    1
    20    13    14   ar
    21    14    15    1
    22    14    21   ar
    23    15    16   ar
    24    16    17   ar
    25    16    29    1
    26    17    18   ar
    27    17    30    1
    28    18    19   ar
    29    18    31    1
    30    19    20   ar
    31    19    32    1
    32    20    15   ar
    33    20    33    1
    34    21    10   ar
    35    22     4   ar
    36    22    34    1
@<TRIPOS>MOLECULE
*****
 34 36 0 0 0
SMALL
GASTEIGER

@<TRIPOS>ATOM
      1 N           2.6124   -6.2760    0.5275 N.am    1  UNL11      -0.3253
      2 C           1.9005   -5.2677   -0.1741 C.2     1  UNL11       0.2416
      3 O           2.2137   -5.0032   -1.3469 O.2     1  UNL11      -0.2704
      4 C           0.8199   -4.5626    0.4873 C.ar    1  UNL11       0.0400
      5 C           0.0573   -5.1588    1.4704 C.ar    1  UNL11      -0.0494
      6 C          -0.9783   -4.4718    2.0991 C.ar    1  UNL11      -0.0576
      7 C          -1.2213   -3.1594    1.7033 C.ar    1  UNL11      -0.0192
      8 C          -0.4782   -2.5454    0.7297 C.ar    1  UNL11       0.1326
      9 O          -0.7582   -1.2470    0.3745 O.3     1  UNL11      -0.4235
     10 C           0.2297   -0.3740   -0.0866 C.ar    1  UNL11       0.3267
     11 N          -0.1419    0.5805   -0.9563 N.ar    1  UNL11      -0.1831
     12 C           0.7145    1.4781   -1.4705 C.ar    1  UNL11       0.1237
     13 N           1.9915    1.3930   -1.0797 N.ar    1  UNL11      -0.2157
     14 C           2.3821    0.4302   -0.1985 C.ar    1  UNL11       0.1666
     15 C           3.7979    0.4085    0.1756 C.ar    1  UNL11       0.0193
     16 C           4.4241   -0.7730    0.5111 C.ar    1  UNL11      -0.0510
     17 C           5.7665   -0.8119    0.8685 C.ar    1  UNL11      -0.0611
     18 C           6.5238    0.3611    0.8967 C.ar    1  UNL11      -0.0617
     19 C           5.8971    1.5418    0.5612 C.ar    1  UNL11      -0.0611
     20 C           4.5635    1.5538    0.2101 C.ar    1  UNL11      -0.0510
     21 N           1.4971   -0.4436    0.2892 N.ar    1  UNL11      -0.1748
     22 C           0.5417   -3.2372    0.1178 C.ar    1  UNL11      -0.0071
     23 H           3.0055   -6.0938    1.4810 H       1  UNL11       0.1453
     24 H           2.7757   -7.2261    0.1383 H       1  UNL11       0.1453
     25 H           0.2432   -6.1611    1.7726 H       1  UNL11       0.0625
     26 H          -1.5665   -4.9545    2.8682 H       1  UNL11       0.0619
     27 H          -2.0284   -2.6279    2.1952 H       1  UNL11       0.0654
     28 H           0.3317    2.2034   -2.1566 H       1  UNL11       0.1049
     29 H           3.8548   -1.6894    0.4949 H       1  UNL11       0.0625
     30 H           6.2485   -1.7388    1.1292 H       1  UNL11       0.0618
     31 H           7.5647    0.2882    1.1801 H       1  UNL11       0.0618
     32 H           6.4922    2.4417    0.5866 H       1  UNL11       0.0618
     33 H           4.0838    2.4819   -0.0503 H       1  UNL11       0.0625
     34 H           1.1462   -2.7920   -0.6486 H       1  UNL11       0.0662
@<TRIPOS>BOND
     1     1     2   am
     2     1    23    1
     3     1    24    1
     4     2     3    2
     5     2     4    1
     6     4     5   ar
     7     5     6   ar
     8     5    25    1
     9     6     7   ar
    10     6    26    1
    11     7     8   ar
    12     7    27    1
    13     8     9    1
    14     8    22   ar
    15     9    10    1
    16    10    11   ar
    17    11    12   ar
    18    12    13   ar
    19    12    28    1
    20    13    14   ar
    21    14    15    1
    22    14    21   ar
    23    15    16   ar
    24    16    17   ar
    25    16    29    1
    26    17    18   ar
    27    17    30    1
    28    18    19   ar
    29    18    31    1
    30    19    20   ar
    31    19    32    1
    32    20    15   ar
    33    20    33    1
    34    21    10   ar
    35    22     4   ar
    36    22    34    1
@<TRIPOS>MOLECULE
*****
 34 36 0 0 0
SMALL
GASTEIGER

@<TRIPOS>ATOM
      1 N          -4.4835   -2.0926    3.7805 N.am    1  UNL11      -0.3253
      2 C          -5.0680   -1.6478    2.5655 C.2     1  UNL11       0.2416
      3 O          -6.2896   -1.7891    2.3882 O.2     1  UNL11      -0.2704
      4 C          -4.2321   -1.0361    1.5509 C.ar    1  UNL11       0.0400
      5 C          -4.7203   -0.0759    0.6889 C.ar    1  UNL11      -0.0494
      6 C          -3.9080    0.5050   -0.2820 C.ar    1  UNL11      -0.0576
      7 C          -2.5827    0.0851   -0.3560 C.ar    1  UNL11      -0.0192
      8 C          -2.0745   -0.8665    0.4884 C.ar    1  UNL11       0.1326
      9 O          -0.7582   -1.2470    0.3745 O.3     1  UNL11      -0.4235
     10 C           0.2297   -0.3740   -0.0866 C.ar    1  UNL11       0.3267
     11 N          -0.1419    0.5805   -0.9563 N.ar    1  UNL11      -0.1831
     12 C           0.7145    1.4781   -1.4705 C.ar    1  UNL11       0.1237
     13 N           1.9915    1.3930   -1.0797 N.ar    1  UNL11      -0.2157
     14 C           2.3821    0.4302   -0.1985 C.ar    1  UNL11       0.1666
     15 C           3.7979    0.4085    0.1756 C.ar    1  UNL11       0.0193
     16 C           4.4241   -0.7730    0.5111 C.ar    1  UNL11      -0.0510
     17 C           5.7665   -0.8119    0.8685 C.ar    1  UNL11      -0.0611
     18 C           6.5238    0.3611    0.8967 C.ar    1  UNL11      -0.0617
     19 C           5.8971    1.5418    0.5612 C.ar    1  UNL11      -0.0611
     20 C           4.5635    1.5538    0.2101 C.ar    1  UNL11      -0.0510
     21 N           1.4971   -0.4436    0.2892 N.ar    1  UNL11      -0.1748
     22 C          -2.8894   -1.4312    1.4425 C.ar    1  UNL11      -0.0071
     23 H          -3.6366   -2.7088    3.7773 H       1  UNL11       0.1453
     24 H          -4.8588   -1.8343    4.7150 H       1  UNL11       0.1453
     25 H          -5.7324    0.2446    0.7457 H       1  UNL11       0.0625
     26 H          -4.3071    1.2567   -0.9499 H       1  UNL11       0.0619
     27 H          -1.9536    0.5399   -1.1132 H       1  UNL11       0.0654
     28 H           0.3317    2.2034   -2.1566 H       1  UNL11       0.1049
     29 H           3.8548   -1.6894    0.4949 H       1  UNL11       0.0625
     30 H           6.2485   -1.7388    1.1292 H       1  UNL11       0.0618
     31 H           7.5647    0.2882    1.1801 H       1  UNL11       0.0618
     32 H           6.4922    2.4417    0.5866 H       1  UNL11       0.0618
     33 H           4.0838    2.4819   -0.0503 H       1  UNL11       0.0625
     34 H          -2.5294   -2.1792    2.1222 H       1  UNL11       0.0662
@<TRIPOS>BOND
     1     1     2   am
     2     1    23    1
     3     1    24    1
     4     2     3    2
     5     2     4    1
     6     4     5   ar
     7     5     6   ar
     8     5    25    1
     9     6     7   ar
    10     6    26    1
    11     7     8   ar
    12     7    27    1
    13     8     9    1
    14     8    22   ar
    15     9    10    1
    16    10    11   ar
    17    11    12   ar
    18    12    13   ar
    19    12    28    1
    20    13    14   ar
    21    14    15    1
    22    14    21   ar
    23    15    16   ar
    24    16    17   ar
    25    16    29    1
    26    17    18   ar
    27    17    30    1
    28    18    19   ar
    29    18    31    1
    30    19    20   ar
    31    19    32    1
    32    20    15   ar
    33    20    33    1
    34    21    10   ar
    35    22     4   ar
    36    22    34    1
@<TRIPOS>MOLECULE
*****
 34 36 0 0 0
SMALL
GASTEIGER

@<TRIPOS>ATOM
      1 N          -3.8893    1.3060   -2.7689 N.am    1  UNL11      -0.3253
      2 C          -4.0131   -0.0841   -3.0297 C.2     1  UNL11       0.2416
      3 O          -4.5704   -0.4620   -4.0739 O.2     1  UNL11      -0.2704
      4 C          -3.4882   -1.0410   -2.0752 C.ar    1  UNL11       0.0400
      5 C          -4.0572   -2.2865   -1.9068 C.ar    1  UNL11      -0.0494
      6 C          -3.5444   -3.1978   -0.9868 C.ar    1  UNL11      -0.0576
      7 C          -2.4354   -2.8115   -0.2392 C.ar    1  UNL11      -0.0192
      8 C          -1.8525   -1.5806   -0.3881 C.ar    1  UNL11       0.1326
      9 O          -0.7582   -1.2470    0.3745 O.3     1  UNL11      -0.4235
     10 C           0.2297   -0.3740   -0.0866 C.ar    1  UNL11       0.3267
     11 N          -0.1419    0.5805   -0.9563 N.ar    1  UNL11      -0.1831
     12 C           0.7145    1.4781   -1.4705 C.ar    1  UNL11       0.1237
     13 N           1.9915    1.3930   -1.0797 N.ar    1  UNL11      -0.2157
     14 C           2.3821    0.4302   -0.1985 C.ar    1  UNL11       0.1666
     15 C           3.7979    0.4085    0.1756 C.ar    1  UNL11       0.0193
     16 C           4.1953   -0.0317    1.4202 C.ar    1  UNL11      -0.0510
     17 C           5.5341   -0.0589    1.7918 C.ar    1  UNL11      -0.0611
     18 C           6.5227    0.3647    0.9010 C.ar    1  UNL11      -0.0617
     19 C           6.1247    0.8045   -0.3429 C.ar    1  UNL11      -0.0611
     20 C           4.7894    0.8219   -0.6876 C.ar    1  UNL11      -0.0510
     21 N           1.4971   -0.4436    0.2892 N.ar    1  UNL11      -0.1748
     22 C          -2.3705   -0.6912   -1.3012 C.ar    1  UNL11      -0.0071
     23 H          -4.1868    1.7104   -1.8497 H       1  UNL11       0.1453
     24 H          -3.5051    1.9783   -3.4626 H       1  UNL11       0.1453
     25 H          -4.9042   -2.5812   -2.4778 H       1  UNL11       0.0625
     26 H          -4.0030   -4.1704   -0.8674 H       1  UNL11       0.0619
     27 H          -2.0391   -3.5239    0.4759 H       1  UNL11       0.0654
     28 H           0.3317    2.2034   -2.1566 H       1  UNL11       0.1049
     29 H           3.4453   -0.3628    2.1217 H       1  UNL11       0.0625
     30 H           5.8364   -0.4041    2.7659 H       1  UNL11       0.0618
     31 H           7.5525    0.3279    1.2285 H       1  UNL11       0.0618
     32 H           6.8973    1.1293   -1.0228 H       1  UNL11       0.0618
     33 H           4.4896    1.1674   -1.6622 H       1  UNL11       0.0625
     34 H          -1.9430    0.2820   -1.4473 H       1  UNL11       0.0662
@<TRIPOS>BOND
     1     1     2   am
     2     1    23    1
     3     1    24    1
     4     2     3    2
     5     2     4    1
     6     4     5   ar
     7     5     6   ar
     8     5    25    1
     9     6     7   ar
    10     6    26    1
    11     7     8   ar
    12     7    27    1
    13     8     9    1
    14     8    22   ar
    15     9    10    1
    16    10    11   ar
    17    11    12   ar
    18    12    13   ar
    19    12    28    1
    20    13    14   ar
    21    14    15    1
    22    14    21   ar
    23    15    16   ar
    24    16    17   ar
    25    16    29    1
    26    17    18   ar
    27    17    30    1
    28    18    19   ar
    29    18    31    1
    30    19    20   ar
    31    19    32    1
    32    20    15   ar
    33    20    33    1
    34    21    10   ar
    35    22     4   ar
    36    22    34    1
@<TRIPOS>MOLECULE
*****
 34 36 0 0 0
SMALL
GASTEIGER

@<TRIPOS>ATOM
      1 N          -5.3967   -3.1770    1.3554 N.am    1  UNL11      -0.3253
      2 C          -5.4149   -2.5729    0.0707 C.2     1  UNL11       0.2416
      3 O          -6.5047   -2.3375   -0.4777 O.2     1  UNL11      -0.2704
      4 C          -4.1635   -2.2400   -0.5816 C.ar    1  UNL11       0.0400
      5 C          -4.0354   -2.2475   -1.9552 C.ar    1  UNL11      -0.0494
      6 C          -2.8282   -1.9259   -2.5710 C.ar    1  UNL11      -0.0576
      7 C          -1.7504   -1.5952   -1.7542 C.ar    1  UNL11      -0.0192
      8 C          -1.8525   -1.5806   -0.3881 C.ar    1  UNL11       0.1326
      9 O          -0.7582   -1.2470    0.3745 O.3     1  UNL11      -0.4235
     10 C           0.2297   -0.3740   -0.0866 C.ar    1  UNL11       0.3267
     11 N          -0.1419    0.5805   -0.9563 N.ar    1  UNL11      -0.1831
     12 C           0.7145    1.4781   -1.4705 C.ar    1  UNL11       0.1237
     13 N           1.9915    1.3930   -1.0797 N.ar    1  UNL11      -0.2157
     14 C           2.3821    0.4302   -0.1985 C.ar    1  UNL11       0.1666
     15 C           3.7979    0.4085    0.1756 C.ar    1  UNL11       0.0193
     16 C           4.4241   -0.7730    0.5111 C.ar    1  UNL11      -0.0510
     17 C           5.7665   -0.8119    0.8685 C.ar    1  UNL11      -0.0611
     18 C           6.5238    0.3611    0.8967 C.ar    1  UNL11      -0.0617
     19 C           5.8971    1.5418    0.5612 C.ar    1  UNL11      -0.0611
     20 C           4.5635    1.5538    0.2101 C.ar    1  UNL11      -0.0510
     21 N           1.4971   -0.4436    0.2892 N.ar    1  UNL11      -0.1748
     22 C          -3.0518   -1.9007    0.2056 C.ar    1  UNL11      -0.0071
     23 H          -4.8059   -4.0205    1.5459 H       1  UNL11       0.1453
     24 H          -5.9570   -2.8198    2.1549 H       1  UNL11       0.1453
     25 H          -4.8586   -2.5001   -2.5787 H       1  UNL11       0.0625
     26 H          -2.7451   -1.9368   -3.6496 H       1  UNL11       0.0619
     27 H          -0.8124   -1.3454   -2.2375 H       1  UNL11       0.0654
     28 H           0.3317    2.2034   -2.1566 H       1  UNL11       0.1049
     29 H           3.8548   -1.6894    0.4949 H       1  UNL11       0.0625
     30 H           6.2485   -1.7388    1.1292 H       1  UNL11       0.0618
     31 H           7.5647    0.2882    1.1801 H       1  UNL11       0.0618
     32 H           6.4922    2.4417    0.5866 H       1  UNL11       0.0618
     33 H           4.0838    2.4819   -0.0503 H       1  UNL11       0.0625
     34 H          -3.1723   -1.9008    1.2717 H       1  UNL11       0.0662
@<TRIPOS>BOND
     1     1     2   am
     2     1    23    1
     3     1    24    1
     4     2     3    2
     5     2     4    1
     6     4     5   ar
     7     5     6   ar
     8     5    25    1
     9     6     7   ar
    10     6    26    1
    11     7     8   ar
    12     7    27    1
    13     8     9    1
    14     8    22   ar
    15     9    10    1
    16    10    11   ar
    17    11    12   ar
    18    12    13   ar
    19    12    28    1
    20    13    14   ar
    21    14    15    1
    22    14    21   ar
    23    15    16   ar
    24    16    17   ar
    25    16    29    1
    26    17    18   ar
    27    17    30    1
    28    18    19   ar
    29    18    31    1
    30    19    20   ar
    31    19    32    1
    32    20    15   ar
    33    20    33    1
    34    21    10   ar
    35    22     4   ar
    36    22    34    1
@<TRIPOS>MOLECULE
*****
 34 36 0 0 0
SMALL
GASTEIGER

@<TRIPOS>ATOM
      1 N          -5.3967   -3.1770    1.3554 N.am    1  UNL11      -0.3253
      2 C          -5.4149   -2.5729    0.0707 C.2     1  UNL11       0.2416
      3 O          -6.5047   -2.3375   -0.4777 O.2     1  UNL11      -0.2704
      4 C          -4.1635   -2.2400   -0.5816 C.ar    1  UNL11       0.0400
      5 C          -4.0354   -2.2475   -1.9552 C.ar    1  UNL11      -0.0494
      6 C          -2.8282   -1.9259   -2.5710 C.ar    1  UNL11      -0.0576
      7 C          -1.7504   -1.5952   -1.7542 C.ar    1  UNL11      -0.0192
      8 C          -1.8525   -1.5806   -0.3881 C.ar    1  UNL11       0.1326
      9 O          -0.7582   -1.2470    0.3745 O.3     1  UNL11      -0.4235
     10 C           0.2297   -0.3740   -0.0866 C.ar    1  UNL11       0.3267
     11 N          -0.1419    0.5805   -0.9563 N.ar    1  UNL11      -0.1831
     12 C           0.7145    1.4781   -1.4705 C.ar    1  UNL11       0.1237
     13 N           1.9915    1.3930   -1.0797 N.ar    1  UNL11      -0.2157
     14 C           2.3821    0.4302   -0.1985 C.ar    1  UNL11       0.1666
     15 C           3.7979    0.4085    0.1756 C.ar    1  UNL11       0.0193
     16 C           4.1953   -0.0317    1.4202 C.ar    1  UNL11      -0.0510
     17 C           5.5341   -0.0589    1.7918 C.ar    1  UNL11      -0.0611
     18 C           6.5227    0.3647    0.9010 C.ar    1  UNL11      -0.0617
     19 C           6.1247    0.8045   -0.3429 C.ar    1  UNL11      -0.0611
     20 C           4.7894    0.8219   -0.6876 C.ar    1  UNL11      -0.0510
     21 N           1.4971   -0.4436    0.2892 N.ar    1  UNL11      -0.1748
     22 C          -3.0518   -1.9007    0.2056 C.ar    1  UNL11      -0.0071
     23 H          -4.8059   -4.0205    1.5459 H       1  UNL11       0.1453
     24 H          -5.9570   -2.8198    2.1549 H       1  UNL11       0.1453
     25 H          -4.8586   -2.5001   -2.5787 H       1  UNL11       0.0625
     26 H          -2.7451   -1.9368   -3.6496 H       1  UNL11       0.0619
     27 H          -0.8124   -1.3454   -2.2375 H       1  UNL11       0.0654
     28 H           0.3317    2.2034   -2.1566 H       1  UNL11       0.1049
     29 H           3.4453   -0.3628    2.1217 H       1  UNL11       0.0625
     30 H           5.8364   -0.4041    2.7659 H       1  UNL11       0.0618
     31 H           7.5525    0.3279    1.2285 H       1  UNL11       0.0618
     32 H           6.8973    1.1293   -1.0228 H       1  UNL11       0.0618
     33 H           4.4896    1.1674   -1.6622 H       1  UNL11       0.0625
     34 H          -3.1723   -1.9008    1.2717 H       1  UNL11       0.0662
@<TRIPOS>BOND
     1     1     2   am
     2     1    23    1
     3     1    24    1
     4     2     3    2
     5     2     4    1
     6     4     5   ar
     7     5     6   ar
     8     5    25    1
     9     6     7   ar
    10     6    26    1
    11     7     8   ar
    12     7    27    1
    13     8     9    1
    14     8    22   ar
    15     9    10    1
    16    10    11   ar
    17    11    12   ar
    18    12    13   ar
    19    12    28    1
    20    13    14   ar
    21    14    15    1
    22    14    21   ar
    23    15    16   ar
    24    16    17   ar
    25    16    29    1
    26    17    18   ar
    27    17    30    1
    28    18    19   ar
    29    18    31    1
    30    19    20   ar
    31    19    32    1
    32    20    15   ar
    33    20    33    1
    34    21    10   ar
    35    22     4   ar
    36    22    34    1
@<TRIPOS>MOLECULE
*****
 34 36 0 0 0
SMALL
GASTEIGER

@<TRIPOS>ATOM
      1 N          -4.6578   -0.5492   -4.2061 N.am    1  UNL11      -0.3253
      2 C          -4.0131   -0.0841   -3.0297 C.2     1  UNL11       0.2416
      3 O          -3.9076    1.1383   -2.8342 O.2     1  UNL11      -0.2704
      4 C          -3.4882   -1.0410   -2.0752 C.ar    1  UNL11       0.0400
      5 C          -4.0572   -2.2865   -1.9068 C.ar    1  UNL11      -0.0494
      6 C          -3.5444   -3.1978   -0.9868 C.ar    1  UNL11      -0.0576
      7 C          -2.4354   -2.8115   -0.2392 C.ar    1  UNL11      -0.0192
      8 C          -1.8525   -1.5806   -0.3881 C.ar    1  UNL11       0.1326
      9 O          -0.7582   -1.2470    0.3745 O.3     1  UNL11      -0.4235
     10 C           0.2297   -0.3740   -0.0866 C.ar    1  UNL11       0.3267
     11 N          -0.1419    0.5805   -0.9563 N.ar    1  UNL11      -0.1831
     12 C           0.7145    1.4781   -1.4705 C.ar    1  UNL11       0.1237
     13 N           1.9915    1.3930   -1.0797 N.ar    1  UNL11      -0.2157
     14 C           2.3821    0.4302   -0.1985 C.ar    1  UNL11       0.1666
     15 C           3.7979    0.4085    0.1756 C.ar    1  UNL11       0.0193
     16 C           4.4241   -0.7730    0.5111 C.ar    1  UNL11      -0.0510
     17 C           5.7665   -0.8119    0.8685 C.ar    1  UNL11      -0.0611
     18 C           6.5238    0.3611    0.8967 C.ar    1  UNL11      -0.0617
     19 C           5.8971    1.5418    0.5612 C.ar    1  UNL11      -0.0611
     20 C           4.5635    1.5538    0.2101 C.ar    1  UNL11      -0.0510
     21 N           1.4971   -0.4436    0.2892 N.ar    1  UNL11      -0.1748
     22 C          -2.3705   -0.6912   -1.3012 C.ar    1  UNL11      -0.0071
     23 H          -4.2042   -1.2644   -4.8223 H       1  UNL11       0.1453
     24 H          -5.5929   -0.2105   -4.5086 H       1  UNL11       0.1453
     25 H          -4.9042   -2.5812   -2.4778 H       1  UNL11       0.0625
     26 H          -4.0030   -4.1704   -0.8674 H       1  UNL11       0.0619
     27 H          -2.0391   -3.5239    0.4759 H       1  UNL11       0.0654
     28 H           0.3317    2.2034   -2.1566 H       1  UNL11       0.1049
     29 H           3.8548   -1.6894    0.4949 H       1  UNL11       0.0625
     30 H           6.2485   -1.7388    1.1292 H       1  UNL11       0.0618
     31 H           7.5647    0.2882    1.1801 H       1  UNL11       0.0618
     32 H           6.4922    2.4417    0.5866 H       1  UNL11       0.0618
     33 H           4.0838    2.4819   -0.0503 H       1  UNL11       0.0625
     34 H          -1.9430    0.2820   -1.4473 H       1  UNL11       0.0662
@<TRIPOS>BOND
     1     1     2   am
     2     1    23    1
     3     1    24    1
     4     2     3    2
     5     2     4    1
     6     4     5   ar
     7     5     6   ar
     8     5    25    1
     9     6     7   ar
    10     6    26    1
    11     7     8   ar
    12     7    27    1
    13     8     9    1
    14     8    22   ar
    15     9    10    1
    16    10    11   ar
    17    11    12   ar
    18    12    13   ar
    19    12    28    1
    20    13    14   ar
    21    14    15    1
    22    14    21   ar
    23    15    16   ar
    24    16    17   ar
    25    16    29    1
    26    17    18   ar
    27    17    30    1
    28    18    19   ar
    29    18    31    1
    30    19    20   ar
    31    19    32    1
    32    20    15   ar
    33    20    33    1
    34    21    10   ar
    35    22     4   ar
    36    22    34    1
@<TRIPOS>MOLECULE
*****
 34 36 0 0 0
SMALL
GASTEIGER

@<TRIPOS>ATOM
      1 N          -1.9130   -6.5690    3.0236 N.am    1  UNL11      -0.3253
      2 C          -1.7268   -5.1623    3.0704 C.2     1  UNL11       0.2416
      3 O          -2.2520   -4.5071    3.9862 O.2     1  UNL11      -0.2704
      4 C          -0.9275   -4.5118    2.0504 C.ar    1  UNL11       0.0400
      5 C           0.1140   -5.1605    1.4197 C.ar    1  UNL11      -0.0494
      6 C           0.8751   -4.5257    0.4411 C.ar    1  UNL11      -0.0576
      7 C           0.5511   -3.2109    0.1177 C.ar    1  UNL11      -0.0192
      8 C          -0.4782   -2.5454    0.7297 C.ar    1  UNL11       0.1326
      9 O          -0.7582   -1.2470    0.3745 O.3     1  UNL11      -0.4235
     10 C           0.2297   -0.3740   -0.0866 C.ar    1  UNL11       0.3267
     11 N          -0.1419    0.5805   -0.9563 N.ar    1  UNL11      -0.1831
     12 C           0.7145    1.4781   -1.4705 C.ar    1  UNL11       0.1237
     13 N           1.9915    1.3930   -1.0797 N.ar    1  UNL11      -0.2157
     14 C           2.3821    0.4302   -0.1985 C.ar    1  UNL11       0.1666
     15 C           3.7979    0.4085    0.1756 C.ar    1  UNL11       0.0193
     16 C           4.5453    1.5669    0.1882 C.ar    1  UNL11      -0.0510
     17 C           5.8896    1.5646    0.5405 C.ar    1  UNL11      -0.0611
     18 C           6.5244    0.3723    0.8951 C.ar    1  UNL11      -0.0617
     19 C           5.7765   -0.7852    0.8823 C.ar    1  UNL11      -0.0611
     20 C           4.4438   -0.7564    0.5288 C.ar    1  UNL11      -0.0510
     21 N           1.4971   -0.4436    0.2892 N.ar    1  UNL11      -0.1748
     22 C          -1.2211   -3.1860    1.6946 C.ar    1  UNL11      -0.0071
     23 H          -2.2317   -7.0415    2.1449 H       1  UNL11       0.1453
     24 H          -1.7459   -7.1879    3.8421 H       1  UNL11       0.1453
     25 H           0.3611   -6.1646    1.6668 H       1  UNL11       0.0625
     26 H           1.6884   -5.0492   -0.0435 H       1  UNL11       0.0619
     27 H           1.1460   -2.7203   -0.6447 H       1  UNL11       0.0654
     28 H           0.3317    2.2034   -2.1566 H       1  UNL11       0.1049
     29 H           4.0717    2.4976   -0.0830 H       1  UNL11       0.0625
     30 H           6.4666    2.4736    0.5478 H       1  UNL11       0.0618
     31 H           7.5712    0.4131    1.1627 H       1  UNL11       0.0618
     32 H           6.2777   -1.7004    1.1582 H       1  UNL11       0.0618
     33 H           3.8689   -1.6667    0.5222 H       1  UNL11       0.0625
     34 H          -2.0348   -2.6995    2.1969 H       1  UNL11       0.0662
@<TRIPOS>BOND
     1     1     2   am
     2     1    23    1
     3     1    24    1
     4     2     3    2
     5     2     4    1
     6     4     5   ar
     7     5     6   ar
     8     5    25    1
     9     6     7   ar
    10     6    26    1
    11     7     8   ar
    12     7    27    1
    13     8     9    1
    14     8    22   ar
    15     9    10    1
    16    10    11   ar
    17    11    12   ar
    18    12    13   ar
    19    12    28    1
    20    13    14   ar
    21    14    15    1
    22    14    21   ar
    23    15    16   ar
    24    16    17   ar
    25    16    29    1
    26    17    18   ar
    27    17    30    1
    28    18    19   ar
    29    18    31    1
    30    19    20   ar
    31    19    32    1
    32    20    15   ar
    33    20    33    1
    34    21    10   ar
    35    22     4   ar
    36    22    34    1
@<TRIPOS>MOLECULE
*****
 34 36 0 0 0
SMALL
GASTEIGER

@<TRIPOS>ATOM
      1 N          -1.4324   -6.6832    3.1067 N.am    1  UNL11      -0.3253
      2 C          -1.7141   -5.6490    2.1757 C.2     1  UNL11       0.2416
      3 O          -2.6305   -5.8031    1.3510 O.2     1  UNL11      -0.2704
      4 C          -0.9296   -4.4299    2.2010 C.ar    1  UNL11       0.0400
      5 C           0.0904   -4.2408    3.1105 C.ar    1  UNL11      -0.0494
      6 C           0.8377   -3.0655    3.1255 C.ar    1  UNL11      -0.0576
      7 C           0.5222   -2.0834    2.1906 C.ar    1  UNL11      -0.0192
      8 C          -0.4859   -2.2474    1.2775 C.ar    1  UNL11       0.1326
      9 O          -0.7582   -1.2470    0.3745 O.3     1  UNL11      -0.4235
     10 C           0.2297   -0.3740   -0.0866 C.ar    1  UNL11       0.3267
     11 N          -0.1419    0.5805   -0.9563 N.ar    1  UNL11      -0.1831
     12 C           0.7145    1.4781   -1.4705 C.ar    1  UNL11       0.1237
     13 N           1.9915    1.3930   -1.0797 N.ar    1  UNL11      -0.2157
     14 C           2.3821    0.4302   -0.1985 C.ar    1  UNL11       0.1666
     15 C           3.7979    0.4085    0.1756 C.ar    1  UNL11       0.0193
     16 C           4.7693    0.8412   -0.7018 C.ar    1  UNL11      -0.0510
     17 C           6.1172    0.8275   -0.3634 C.ar    1  UNL11      -0.0611
     18 C           6.5254    0.3688    0.8909 C.ar    1  UNL11      -0.0617
     19 C           5.5538   -0.0635    1.7673 C.ar    1  UNL11      -0.0611
     20 C           4.2226   -0.0399    1.4075 C.ar    1  UNL11      -0.0510
     21 N           1.4971   -0.4436    0.2892 N.ar    1  UNL11      -0.1748
     22 C          -1.2152   -3.4142    1.2750 C.ar    1  UNL11      -0.0071
     23 H          -0.4563   -7.0399    3.2370 H       1  UNL11       0.1453
     24 H          -2.1654   -7.1291    3.6938 H       1  UNL11       0.1453
     25 H           0.3312   -4.9910    3.8243 H       1  UNL11       0.0625
     26 H           1.6342   -2.9336    3.8457 H       1  UNL11       0.0619
     27 H           1.1063   -1.1699    2.2056 H       1  UNL11       0.0654
     28 H           0.3317    2.2034   -2.1566 H       1  UNL11       0.1049
     29 H           4.4725    1.1990   -1.6754 H       1  UNL11       0.0625
     30 H           6.8699    1.1671   -1.0543 H       1  UNL11       0.0618
     31 H           7.5831    0.3743    1.1152 H       1  UNL11       0.0618
     32 H           5.8811   -0.4157    2.7335 H       1  UNL11       0.0618
     33 H           3.4717   -0.3800    2.1001 H       1  UNL11       0.0625
     34 H          -2.0122   -3.5809    0.5764 H       1  UNL11       0.0662
@<TRIPOS>BOND
     1     1     2   am
     2     1    23    1
     3     1    24    1
     4     2     3    2
     5     2     4    1
     6     4     5   ar
     7     5     6   ar
     8     5    25    1
     9     6     7   ar
    10     6    26    1
    11     7     8   ar
    12     7    27    1
    13     8     9    1
    14     8    22   ar
    15     9    10    1
    16    10    11   ar
    17    11    12   ar
    18    12    13   ar
    19    12    28    1
    20    13    14   ar
    21    14    15    1
    22    14    21   ar
    23    15    16   ar
    24    16    17   ar
    25    16    29    1
    26    17    18   ar
    27    17    30    1
    28    18    19   ar
    29    18    31    1
    30    19    20   ar
    31    19    32    1
    32    20    15   ar
    33    20    33    1
    34    21    10   ar
    35    22     4   ar
    36    22    34    1
@<TRIPOS>MOLECULE
*****
 34 36 0 0 0
SMALL
GASTEIGER

@<TRIPOS>ATOM
      1 N          -3.0913   -0.2846   -4.0779 N.am    1  UNL11      -0.3253
      2 C          -4.0176   -0.0754   -3.0225 C.2     1  UNL11       0.2416
      3 O          -5.0735    0.5387   -3.2497 O.2     1  UNL11      -0.2704
      4 C          -3.7183   -0.5809   -1.6968 C.ar    1  UNL11       0.0400
      5 C          -4.7143   -0.9721   -0.8262 C.ar    1  UNL11      -0.0494
      6 C          -4.4151   -1.4563    0.4450 C.ar    1  UNL11      -0.0576
      7 C          -3.0743   -1.5336    0.8115 C.ar    1  UNL11      -0.0192
      8 C          -2.0672   -1.1512   -0.0351 C.ar    1  UNL11       0.1326
      9 O          -0.7582   -1.2470    0.3745 O.3     1  UNL11      -0.4235
     10 C           0.2297   -0.3740   -0.0866 C.ar    1  UNL11       0.3267
     11 N          -0.1419    0.5805   -0.9563 N.ar    1  UNL11      -0.1831
     12 C           0.7145    1.4781   -1.4705 C.ar    1  UNL11       0.1237
     13 N           1.9915    1.3930   -1.0797 N.ar    1  UNL11      -0.2157
     14 C           2.3821    0.4302   -0.1985 C.ar    1  UNL11       0.1666
     15 C           3.7979    0.4085    0.1756 C.ar    1  UNL11       0.0193
     16 C           4.2850   -0.5384    1.0512 C.ar    1  UNL11      -0.0510
     17 C           5.6252   -0.5737    1.4171 C.ar    1  UNL11      -0.0611
     18 C           6.5231    0.3623    0.8993 C.ar    1  UNL11      -0.0617
     19 C           6.0354    1.3085    0.0240 C.ar    1  UNL11      -0.0611
     20 C           4.7008    1.3222   -0.3233 C.ar    1  UNL11      -0.0510
     21 N           1.4971   -0.4436    0.2892 N.ar    1  UNL11      -0.1748
     22 C          -2.3787   -0.6750   -1.2878 C.ar    1  UNL11      -0.0071
     23 H          -2.0788   -0.0429   -3.9622 H       1  UNL11       0.1453
     24 H          -3.3657   -0.6800   -4.9995 H       1  UNL11       0.1453
     25 H          -5.7383   -0.9131   -1.1063 H       1  UNL11       0.0625
     26 H          -5.2086   -1.7588    1.1152 H       1  UNL11       0.0619
     27 H          -2.8455   -1.9111    1.8019 H       1  UNL11       0.0654
     28 H           0.3317    2.2034   -2.1566 H       1  UNL11       0.1049
     29 H           3.6058   -1.2696    1.4615 H       1  UNL11       0.0625
     30 H           5.9980   -1.3165    2.1016 H       1  UNL11       0.0618
     31 H           7.5572    0.3008    1.2089 H       1  UNL11       0.0618
     32 H           6.7385    2.0264   -0.3696 H       1  UNL11       0.0618
     33 H           4.3305    2.0660   -1.0080 H       1  UNL11       0.0625
     34 H          -1.6193   -0.3656   -1.9797 H       1  UNL11       0.0662
@<TRIPOS>BOND
     1     1     2   am
     2     1    23    1
     3     1    24    1
     4     2     3    2
     5     2     4    1
     6     4     5   ar
     7     5     6   ar
     8     5    25    1
     9     6     7   ar
    10     6    26    1
    11     7     8   ar
    12     7    27    1
    13     8     9    1
    14     8    22   ar
    15     9    10    1
    16    10    11   ar
    17    11    12   ar
    18    12    13   ar
    19    12    28    1
    20    13    14   ar
    21    14    15    1
    22    14    21   ar
    23    15    16   ar
    24    16    17   ar
    25    16    29    1
    26    17    18   ar
    27    17    30    1
    28    18    19   ar
    29    18    31    1
    30    19    20   ar
    31    19    32    1
    32    20    15   ar
    33    20    33    1
    34    21    10   ar
    35    22     4   ar
    36    22    34    1
@<TRIPOS>MOLECULE
*****
 34 36 0 0 0
SMALL
GASTEIGER

@<TRIPOS>ATOM
      1 N           2.9513   -3.2361    3.2875 N.am    1  UNL11      -0.3253
      2 C           1.8363   -2.9314    4.1118 C.2     1  UNL11       0.2416
      3 O           1.9799   -2.8992    5.3455 O.2     1  UNL11      -0.2704
      4 C           0.5482   -2.6625    3.5028 C.ar    1  UNL11       0.0400
      5 C          -0.6359   -2.9620    4.1444 C.ar    1  UNL11      -0.0494
      6 C          -1.8676   -2.6993    3.5497 C.ar    1  UNL11      -0.0576
      7 C          -1.8671   -2.1225    2.2826 C.ar    1  UNL11      -0.0192
      8 C          -0.7050   -1.8159    1.6251 C.ar    1  UNL11       0.1326
      9 O          -0.7582   -1.2470    0.3745 O.3     1  UNL11      -0.4235
     10 C           0.2297   -0.3740   -0.0866 C.ar    1  UNL11       0.3267
     11 N          -0.1419    0.5805   -0.9563 N.ar    1  UNL11      -0.1831
     12 C           0.7145    1.4781   -1.4705 C.ar    1  UNL11       0.1237
     13 N           1.9915    1.3930   -1.0797 N.ar    1  UNL11      -0.2157
     14 C           2.3821    0.4302   -0.1985 C.ar    1  UNL11       0.1666
     15 C           3.7979    0.4085    0.1756 C.ar    1  UNL11       0.0193
     16 C           4.6836    1.3255   -0.3492 C.ar    1  UNL11      -0.0510
     17 C           6.0301    1.3194   -0.0053 C.ar    1  UNL11      -0.0611
     18 C           6.5250    0.3711    0.8926 C.ar    1  UNL11      -0.0617
     19 C           5.6390   -0.5451    1.4167 C.ar    1  UNL11      -0.0611
     20 C           4.3073   -0.5181    1.0594 C.ar    1  UNL11      -0.0510
     21 N           1.4971   -0.4436    0.2892 N.ar    1  UNL11      -0.1748
     22 C           0.5042   -2.0814    2.2256 C.ar    1  UNL11      -0.0071
     23 H           2.8882   -3.9737    2.5465 H       1  UNL11       0.1453
     24 H           3.8674   -2.7526    3.3759 H       1  UNL11       0.1453
     25 H          -0.6359   -3.4024    5.1121 H       1  UNL11       0.0625
     26 H          -2.7866   -2.9406    4.0670 H       1  UNL11       0.0619
     27 H          -2.8281   -1.9195    1.8231 H       1  UNL11       0.0654
     28 H           0.3317    2.2034   -2.1566 H       1  UNL11       0.1049
     29 H           4.3191    2.0656   -1.0445 H       1  UNL11       0.0625
     30 H           6.7156    2.0390   -0.4195 H       1  UNL11       0.0618
     31 H           7.5785    0.4002    1.1340 H       1  UNL11       0.0618
     32 H           6.0329   -1.2730    2.1094 H       1  UNL11       0.0618
     33 H           3.6238   -1.2386    1.4750 H       1  UNL11       0.0625
     34 H           1.4359   -1.8562    1.7438 H       1  UNL11       0.0662
@<TRIPOS>BOND
     1     1     2   am
     2     1    23    1
     3     1    24    1
     4     2     3    2
     5     2     4    1
     6     4     5   ar
     7     5     6   ar
     8     5    25    1
     9     6     7   ar
    10     6    26    1
    11     7     8   ar
    12     7    27    1
    13     8     9    1
    14     8    22   ar
    15     9    10    1
    16    10    11   ar
    17    11    12   ar
    18    12    13   ar
    19    12    28    1
    20    13    14   ar
    21    14    15    1
    22    14    21   ar
    23    15    16   ar
    24    16    17   ar
    25    16    29    1
    26    17    18   ar
    27    17    30    1
    28    18    19   ar
    29    18    31    1
    30    19    20   ar
    31    19    32    1
    32    20    15   ar
    33    20    33    1
    34    21    10   ar
    35    22     4   ar
    36    22    34    1
@<TRIPOS>MOLECULE
*****
 34 36 0 0 0
SMALL
GASTEIGER

@<TRIPOS>ATOM
      1 N          -5.8513    1.8473   -1.0247 N.am    1  UNL11      -0.3253
      2 C          -4.4917    1.4551   -1.1406 C.2     1  UNL11       0.2416
      3 O          -3.7800    1.9719   -2.0181 O.2     1  UNL11      -0.2704
      4 C          -3.9544    0.4587   -0.2344 C.ar    1  UNL11       0.0400
      5 C          -4.7293   -0.1244    0.7467 C.ar    1  UNL11      -0.0494
      6 C          -4.2025   -1.0806    1.6117 C.ar    1  UNL11      -0.0576
      7 C          -2.8644   -1.4312    1.4549 C.ar    1  UNL11      -0.0192
      8 C          -2.0745   -0.8665    0.4884 C.ar    1  UNL11       0.1326
      9 O          -0.7582   -1.2470    0.3745 O.3     1  UNL11      -0.4235
     10 C           0.2297   -0.3740   -0.0866 C.ar    1  UNL11       0.3267
     11 N          -0.1419    0.5805   -0.9563 N.ar    1  UNL11      -0.1831
     12 C           0.7145    1.4781   -1.4705 C.ar    1  UNL11       0.1237
     13 N           1.9915    1.3930   -1.0797 N.ar    1  UNL11      -0.2157
     14 C           2.3821    0.4302   -0.1985 C.ar    1  UNL11       0.1666
     15 C           3.7979    0.4085    0.1756 C.ar    1  UNL11       0.0193
     16 C           4.7693    0.8412   -0.7018 C.ar    1  UNL11      -0.0510
     17 C           6.1172    0.8275   -0.3634 C.ar    1  UNL11      -0.0611
     18 C           6.5254    0.3688    0.8909 C.ar    1  UNL11      -0.0617
     19 C           5.5538   -0.0635    1.7673 C.ar    1  UNL11      -0.0611
     20 C           4.2226   -0.0399    1.4075 C.ar    1  UNL11      -0.0510
     21 N           1.4971   -0.4436    0.2892 N.ar    1  UNL11      -0.1748
     22 C          -2.6093    0.0768   -0.3586 C.ar    1  UNL11      -0.0071
     23 H          -6.6167    1.1334   -0.9868 H       1  UNL11       0.1453
     24 H          -6.1492    2.8419   -0.9726 H       1  UNL11       0.1453
     25 H          -5.7512    0.1435    0.8663 H       1  UNL11       0.0625
     26 H          -4.8243   -1.5280    2.3757 H       1  UNL11       0.0619
     27 H          -2.4581   -2.1760    2.1302 H       1  UNL11       0.0654
     28 H           0.3317    2.2034   -2.1566 H       1  UNL11       0.1049
     29 H           4.4725    1.1990   -1.6754 H       1  UNL11       0.0625
     30 H           6.8699    1.1671   -1.0543 H       1  UNL11       0.0618
     31 H           7.5831    0.3743    1.1152 H       1  UNL11       0.0618
     32 H           5.8811   -0.4157    2.7335 H       1  UNL11       0.0618
     33 H           3.4717   -0.3800    2.1001 H       1  UNL11       0.0625
     34 H          -2.0239    0.5422   -1.1279 H       1  UNL11       0.0662
@<TRIPOS>BOND
     1     1     2   am
     2     1    23    1
     3     1    24    1
     4     2     3    2
     5     2     4    1
     6     4     5   ar
     7     5     6   ar
     8     5    25    1
     9     6     7   ar
    10     6    26    1
    11     7     8   ar
    12     7    27    1
    13     8     9    1
    14     8    22   ar
    15     9    10    1
    16    10    11   ar
    17    11    12   ar
    18    12    13   ar
    19    12    28    1
    20    13    14   ar
    21    14    15    1
    22    14    21   ar
    23    15    16   ar
    24    16    17   ar
    25    16    29    1
    26    17    18   ar
    27    17    30    1
    28    18    19   ar
    29    18    31    1
    30    19    20   ar
    31    19    32    1
    32    20    15   ar
    33    20    33    1
    34    21    10   ar
    35    22     4   ar
    36    22    34    1
@<TRIPOS>MOLECULE
*****
 34 36 0 0 0
SMALL
GASTEIGER

@<TRIPOS>ATOM
      1 N           1.9630   -2.9014    5.5256 N.am    1  UNL11      -0.3253
      2 C           1.8363   -2.9314    4.1118 C.2     1  UNL11       0.2416
      3 O           2.8324   -3.1881    3.4150 O.2     1  UNL11      -0.2704
      4 C           0.5482   -2.6625    3.5028 C.ar    1  UNL11       0.0400
      5 C          -0.6359   -2.9620    4.1444 C.ar    1  UNL11      -0.0494
      6 C          -1.8676   -2.6993    3.5497 C.ar    1  UNL11      -0.0576
      7 C          -1.8671   -2.1225    2.2826 C.ar    1  UNL11      -0.0192
      8 C          -0.7050   -1.8159    1.6251 C.ar    1  UNL11       0.1326
      9 O          -0.7582   -1.2470    0.3745 O.3     1  UNL11      -0.4235
     10 C           0.2297   -0.3740   -0.0866 C.ar    1  UNL11       0.3267
     11 N          -0.1419    0.5805   -0.9563 N.ar    1  UNL11      -0.1831
     12 C           0.7145    1.4781   -1.4705 C.ar    1  UNL11       0.1237
     13 N           1.9915    1.3930   -1.0797 N.ar    1  UNL11      -0.2157
     14 C           2.3821    0.4302   -0.1985 C.ar    1  UNL11       0.1666
     15 C           3.7979    0.4085    0.1756 C.ar    1  UNL11       0.0193
     16 C           4.7693    0.8412   -0.7018 C.ar    1  UNL11      -0.0510
     17 C           6.1172    0.8275   -0.3634 C.ar    1  UNL11      -0.0611
     18 C           6.5254    0.3688    0.8909 C.ar    1  UNL11      -0.0617
     19 C           5.5538   -0.0635    1.7673 C.ar    1  UNL11      -0.0611
     20 C           4.2226   -0.0399    1.4075 C.ar    1  UNL11      -0.0510
     21 N           1.4971   -0.4436    0.2892 N.ar    1  UNL11      -0.1748
     22 C           0.5042   -2.0814    2.2256 C.ar    1  UNL11      -0.0071
     23 H           1.6110   -2.0861    6.0810 H       1  UNL11       0.1453
     24 H           2.4023   -3.6710    6.0692 H       1  UNL11       0.1453
     25 H          -0.6359   -3.4024    5.1121 H       1  UNL11       0.0625
     26 H          -2.7866   -2.9406    4.0670 H       1  UNL11       0.0619
     27 H          -2.8281   -1.9195    1.8231 H       1  UNL11       0.0654
     28 H           0.3317    2.2034   -2.1566 H       1  UNL11       0.1049
     29 H           4.4725    1.1990   -1.6754 H       1  UNL11       0.0625
     30 H           6.8699    1.1671   -1.0543 H       1  UNL11       0.0618
     31 H           7.5831    0.3743    1.1152 H       1  UNL11       0.0618
     32 H           5.8811   -0.4157    2.7335 H       1  UNL11       0.0618
     33 H           3.4717   -0.3800    2.1001 H       1  UNL11       0.0625
     34 H           1.4359   -1.8562    1.7438 H       1  UNL11       0.0662
@<TRIPOS>BOND
     1     1     2   am
     2     1    23    1
     3     1    24    1
     4     2     3    2
     5     2     4    1
     6     4     5   ar
     7     5     6   ar
     8     5    25    1
     9     6     7   ar
    10     6    26    1
    11     7     8   ar
    12     7    27    1
    13     8     9    1
    14     8    22   ar
    15     9    10    1
    16    10    11   ar
    17    11    12   ar
    18    12    13   ar
    19    12    28    1
    20    13    14   ar
    21    14    15    1
    22    14    21   ar
    23    15    16   ar
    24    16    17   ar
    25    16    29    1
    26    17    18   ar
    27    17    30    1
    28    18    19   ar
    29    18    31    1
    30    19    20   ar
    31    19    32    1
    32    20    15   ar
    33    20    33    1
    34    21    10   ar
    35    22     4   ar
    36    22    34    1
@<TRIPOS>MOLECULE
*****
 34 36 0 0 0
SMALL
GASTEIGER

@<TRIPOS>ATOM
      1 N          -3.9104   -1.7010   -4.7773 N.am    1  UNL11      -0.3253
      2 C          -2.7737   -1.9866   -3.9759 C.2     1  UNL11       0.2416
      3 O          -1.6925   -2.2577   -4.5247 O.2     1  UNL11      -0.2704
      4 C          -2.8911   -1.9575   -2.5310 C.ar    1  UNL11       0.0400
      5 C          -4.0766   -2.2568   -1.8920 C.ar    1  UNL11      -0.0494
      6 C          -4.1778   -2.2257   -0.5032 C.ar    1  UNL11      -0.0576
      7 C          -3.0410   -1.8819    0.2232 C.ar    1  UNL11      -0.0192
      8 C          -1.8525   -1.5806   -0.3881 C.ar    1  UNL11       0.1326
      9 O          -0.7582   -1.2470    0.3745 O.3     1  UNL11      -0.4235
     10 C           0.2297   -0.3740   -0.0866 C.ar    1  UNL11       0.3267
     11 N          -0.1419    0.5805   -0.9563 N.ar    1  UNL11      -0.1831
     12 C           0.7145    1.4781   -1.4705 C.ar    1  UNL11       0.1237
     13 N           1.9915    1.3930   -1.0797 N.ar    1  UNL11      -0.2157
     14 C           2.3821    0.4302   -0.1985 C.ar    1  UNL11       0.1666
     15 C           3.7979    0.4085    0.1756 C.ar    1  UNL11       0.0193
     16 C           4.7693    0.8412   -0.7018 C.ar    1  UNL11      -0.0510
     17 C           6.1172    0.8275   -0.3634 C.ar    1  UNL11      -0.0611
     18 C           6.5254    0.3688    0.8909 C.ar    1  UNL11      -0.0617
     19 C           5.5538   -0.0635    1.7673 C.ar    1  UNL11      -0.0611
     20 C           4.2226   -0.0399    1.4075 C.ar    1  UNL11      -0.0510
     21 N           1.4971   -0.4436    0.2892 N.ar    1  UNL11      -0.1748
     22 C          -1.7682   -1.6157   -1.7610 C.ar    1  UNL11      -0.0071
     23 H          -4.8232   -2.1866   -4.6104 H       1  UNL11       0.1453
     24 H          -3.8942   -1.0100   -5.5539 H       1  UNL11       0.1453
     25 H          -4.9446   -2.5193   -2.4470 H       1  UNL11       0.0625
     26 H          -5.1152   -2.4632   -0.0182 H       1  UNL11       0.0619
     27 H          -3.1239   -1.8589    1.3041 H       1  UNL11       0.0654
     28 H           0.3317    2.2034   -2.1566 H       1  UNL11       0.1049
     29 H           4.4725    1.1990   -1.6754 H       1  UNL11       0.0625
     30 H           6.8699    1.1671   -1.0543 H       1  UNL11       0.0618
     31 H           7.5831    0.3743    1.1152 H       1  UNL11       0.0618
     32 H           5.8811   -0.4157    2.7335 H       1  UNL11       0.0618
     33 H           3.4717   -0.3800    2.1001 H       1  UNL11       0.0625
     34 H          -0.8560   -1.3865   -2.2772 H       1  UNL11       0.0662
@<TRIPOS>BOND
     1     1     2   am
     2     1    23    1
     3     1    24    1
     4     2     3    2
     5     2     4    1
     6     4     5   ar
     7     5     6   ar
     8     5    25    1
     9     6     7   ar
    10     6    26    1
    11     7     8   ar
    12     7    27    1
    13     8     9    1
    14     8    22   ar
    15     9    10    1
    16    10    11   ar
    17    11    12   ar
    18    12    13   ar
    19    12    28    1
    20    13    14   ar
    21    14    15    1
    22    14    21   ar
    23    15    16   ar
    24    16    17   ar
    25    16    29    1
    26    17    18   ar
    27    17    30    1
    28    18    19   ar
    29    18    31    1
    30    19    20   ar
    31    19    32    1
    32    20    15   ar
    33    20    33    1
    34    21    10   ar
    35    22     4   ar
    36    22    34    1
@<TRIPOS>MOLECULE
*****
 34 36 0 0 0
SMALL
GASTEIGER

@<TRIPOS>ATOM
      1 N           3.5253   -3.9461    1.1234 N.am    1  UNL11      -0.3253
      2 C           2.4450   -4.8475    0.9329 C.2     1  UNL11       0.2416
      3 O           2.6827   -6.0432    0.6934 O.2     1  UNL11      -0.2704
      4 C           1.0822   -4.3601    1.0206 C.ar    1  UNL11       0.0400
      5 C           0.0488   -5.1654    1.4531 C.ar    1  UNL11      -0.0494
      6 C          -1.2566   -4.6865    1.5335 C.ar    1  UNL11      -0.0576
      7 C          -1.4874   -3.3647    1.1623 C.ar    1  UNL11      -0.0192
      8 C          -0.4782   -2.5454    0.7297 C.ar    1  UNL11       0.1326
      9 O          -0.7582   -1.2470    0.3745 O.3     1  UNL11      -0.4235
     10 C           0.2297   -0.3740   -0.0866 C.ar    1  UNL11       0.3267
     11 N          -0.1419    0.5805   -0.9563 N.ar    1  UNL11      -0.1831
     12 C           0.7145    1.4781   -1.4705 C.ar    1  UNL11       0.1237
     13 N           1.9915    1.3930   -1.0797 N.ar    1  UNL11      -0.2157
     14 C           2.3821    0.4302   -0.1985 C.ar    1  UNL11       0.1666
     15 C           3.7979    0.4085    0.1756 C.ar    1  UNL11       0.0193
     16 C           4.5453    1.5669    0.1882 C.ar    1  UNL11      -0.0510
     17 C           5.8896    1.5646    0.5405 C.ar    1  UNL11      -0.0611
     18 C           6.5244    0.3723    0.8951 C.ar    1  UNL11      -0.0617
     19 C           5.7765   -0.7852    0.8823 C.ar    1  UNL11      -0.0611
     20 C           4.4438   -0.7564    0.5288 C.ar    1  UNL11      -0.0510
     21 N           1.4971   -0.4436    0.2892 N.ar    1  UNL11      -0.1748
     22 C           0.8063   -3.0330    0.6558 C.ar    1  UNL11      -0.0071
     23 H           3.5701   -3.0403    0.5995 H       1  UNL11       0.1453
     24 H           4.3096   -4.1358    1.7789 H       1  UNL11       0.1453
     25 H           0.2254   -6.1748    1.7365 H       1  UNL11       0.0625
     26 H          -2.0552   -5.3316    1.8748 H       1  UNL11       0.0619
     27 H          -2.5051   -2.9957    1.2264 H       1  UNL11       0.0654
     28 H           0.3317    2.2034   -2.1566 H       1  UNL11       0.1049
     29 H           4.0717    2.4976   -0.0830 H       1  UNL11       0.0625
     30 H           6.4666    2.4736    0.5478 H       1  UNL11       0.0618
     31 H           7.5712    0.4131    1.1627 H       1  UNL11       0.0618
     32 H           6.2777   -1.7004    1.1582 H       1  UNL11       0.0618
     33 H           3.8689   -1.6667    0.5222 H       1  UNL11       0.0625
     34 H           1.6238   -2.4234    0.3222 H       1  UNL11       0.0662
@<TRIPOS>BOND
     1     1     2   am
     2     1    23    1
     3     1    24    1
     4     2     3    2
     5     2     4    1
     6     4     5   ar
     7     5     6   ar
     8     5    25    1
     9     6     7   ar
    10     6    26    1
    11     7     8   ar
    12     7    27    1
    13     8     9    1
    14     8    22   ar
    15     9    10    1
    16    10    11   ar
    17    11    12   ar
    18    12    13   ar
    19    12    28    1
    20    13    14   ar
    21    14    15    1
    22    14    21   ar
    23    15    16   ar
    24    16    17   ar
    25    16    29    1
    26    17    18   ar
    27    17    30    1
    28    18    19   ar
    29    18    31    1
    30    19    20   ar
    31    19    32    1
    32    20    15   ar
    33    20    33    1
    34    21    10   ar
    35    22     4   ar
    36    22    34    1
@<TRIPOS>MOLECULE
*****
 34 36 0 0 0
SMALL
GASTEIGER

@<TRIPOS>ATOM
      1 N           3.0559   -3.5677    2.8767 N.am    1  UNL11      -0.3253
      2 C           2.3368   -4.5419    2.1354 C.2     1  UNL11       0.2416
      3 O           2.8378   -5.6645    1.9556 O.2     1  UNL11      -0.2704
      4 C           1.0301   -4.2129    1.5999 C.ar    1  UNL11       0.0400
      5 C           0.0505   -5.1701    1.4344 C.ar    1  UNL11      -0.0494
      6 C          -1.2013   -4.8427    0.9190 C.ar    1  UNL11      -0.0576
      7 C          -1.4346   -3.5141    0.5748 C.ar    1  UNL11      -0.0192
      8 C          -0.4782   -2.5454    0.7297 C.ar    1  UNL11       0.1326
      9 O          -0.7582   -1.2470    0.3745 O.3     1  UNL11      -0.4235
     10 C           0.2297   -0.3740   -0.0866 C.ar    1  UNL11       0.3267
     11 N          -0.1419    0.5805   -0.9563 N.ar    1  UNL11      -0.1831
     12 C           0.7145    1.4781   -1.4705 C.ar    1  UNL11       0.1237
     13 N           1.9915    1.3930   -1.0797 N.ar    1  UNL11      -0.2157
     14 C           2.3821    0.4302   -0.1985 C.ar    1  UNL11       0.1666
     15 C           3.7979    0.4085    0.1756 C.ar    1  UNL11       0.0193
     16 C           4.7693    0.8412   -0.7018 C.ar    1  UNL11      -0.0510
     17 C           6.1172    0.8275   -0.3634 C.ar    1  UNL11      -0.0611
     18 C           6.5254    0.3688    0.8909 C.ar    1  UNL11      -0.0617
     19 C           5.5538   -0.0635    1.7673 C.ar    1  UNL11      -0.0611
     20 C           4.2226   -0.0399    1.4075 C.ar    1  UNL11      -0.0510
     21 N           1.4971   -0.4436    0.2892 N.ar    1  UNL11      -0.1748
     22 C           0.7537   -2.8844    1.2402 C.ar    1  UNL11      -0.0071
     23 H           3.1978   -2.6006    2.5003 H       1  UNL11       0.1453
     24 H           3.4692   -3.7611    3.8108 H       1  UNL11       0.1453
     25 H           0.2289   -6.1847    1.6974 H       1  UNL11       0.0625
     26 H          -1.9581   -5.6059    0.7957 H       1  UNL11       0.0619
     27 H          -2.4104   -3.2632    0.1740 H       1  UNL11       0.0654
     28 H           0.3317    2.2034   -2.1566 H       1  UNL11       0.1049
     29 H           4.4725    1.1990   -1.6754 H       1  UNL11       0.0625
     30 H           6.8699    1.1671   -1.0543 H       1  UNL11       0.0618
     31 H           7.5831    0.3743    1.1152 H       1  UNL11       0.0618
     32 H           5.8811   -0.4157    2.7335 H       1  UNL11       0.0618
     33 H           3.4717   -0.3800    2.1001 H       1  UNL11       0.0625
     34 H           1.5289   -2.1554    1.3767 H       1  UNL11       0.0662
@<TRIPOS>BOND
     1     1     2   am
     2     1    23    1
     3     1    24    1
     4     2     3    2
     5     2     4    1
     6     4     5   ar
     7     5     6   ar
     8     5    25    1
     9     6     7   ar
    10     6    26    1
    11     7     8   ar
    12     7    27    1
    13     8     9    1
    14     8    22   ar
    15     9    10    1
    16    10    11   ar
    17    11    12   ar
    18    12    13   ar
    19    12    28    1
    20    13    14   ar
    21    14    15    1
    22    14    21   ar
    23    15    16   ar
    24    16    17   ar
    25    16    29    1
    26    17    18   ar
    27    17    30    1
    28    18    19   ar
    29    18    31    1
    30    19    20   ar
    31    19    32    1
    32    20    15   ar
    33    20    33    1
    34    21    10   ar
    35    22     4   ar
    36    22    34    1
@<TRIPOS>MOLECULE
*****
 34 36 0 0 0
SMALL
GASTEIGER

@<TRIPOS>ATOM
      1 N          -3.5694   -5.3630    1.5362 N.am    1  UNL11      -0.3253
      2 C          -2.2471   -5.5639    2.0126 C.2     1  UNL11       0.2416
      3 O          -2.0239   -6.4741    2.8283 O.2     1  UNL11      -0.2704
      4 C          -1.1782   -4.7052    1.5408 C.ar    1  UNL11       0.0400
      5 C           0.1221   -5.1542    1.4362 C.ar    1  UNL11      -0.0494
      6 C           1.1410   -4.3205    0.9816 C.ar    1  UNL11      -0.0576
      7 C           0.8054   -3.0147    0.6346 C.ar    1  UNL11      -0.0192
      8 C          -0.4782   -2.5454    0.7297 C.ar    1  UNL11       0.1326
      9 O          -0.7582   -1.2470    0.3745 O.3     1  UNL11      -0.4235
     10 C           0.2297   -0.3740   -0.0866 C.ar    1  UNL11       0.3267
     11 N          -0.1419    0.5805   -0.9563 N.ar    1  UNL11      -0.1831
     12 C           0.7145    1.4781   -1.4705 C.ar    1  UNL11       0.1237
     13 N           1.9915    1.3930   -1.0797 N.ar    1  UNL11      -0.2157
     14 C           2.3821    0.4302   -0.1985 C.ar    1  UNL11       0.1666
     15 C           3.7979    0.4085    0.1756 C.ar    1  UNL11       0.0193
     16 C           4.7693    0.8412   -0.7018 C.ar    1  UNL11      -0.0510
     17 C           6.1172    0.8275   -0.3634 C.ar    1  UNL11      -0.0611
     18 C           6.5254    0.3688    0.8909 C.ar    1  UNL11      -0.0617
     19 C           5.5538   -0.0635    1.7673 C.ar    1  UNL11      -0.0611
     20 C           4.2226   -0.0399    1.4075 C.ar    1  UNL11      -0.0510
     21 N           1.4971   -0.4436    0.2892 N.ar    1  UNL11      -0.1748
     22 C          -1.4740   -3.3811    1.1805 C.ar    1  UNL11      -0.0071
     23 H          -4.0108   -4.4134    1.5558 H       1  UNL11       0.1453
     24 H          -4.1538   -6.1322    1.1521 H       1  UNL11       0.1453
     25 H           0.3781   -6.1515    1.7012 H       1  UNL11       0.0625
     26 H           2.1554   -4.6888    0.9057 H       1  UNL11       0.0619
     27 H           1.6015   -2.3688    0.2811 H       1  UNL11       0.0654
     28 H           0.3317    2.2034   -2.1566 H       1  UNL11       0.1049
     29 H           4.4725    1.1990   -1.6754 H       1  UNL11       0.0625
     30 H           6.8699    1.1671   -1.0543 H       1  UNL11       0.0618
     31 H           7.5831    0.3743    1.1152 H       1  UNL11       0.0618
     32 H           5.8811   -0.4157    2.7335 H       1  UNL11       0.0618
     33 H           3.4717   -0.3800    2.1001 H       1  UNL11       0.0625
     34 H          -2.4912   -3.0517    1.2692 H       1  UNL11       0.0662
@<TRIPOS>BOND
     1     1     2   am
     2     1    23    1
     3     1    24    1
     4     2     3    2
     5     2     4    1
     6     4     5   ar
     7     5     6   ar
     8     5    25    1
     9     6     7   ar
    10     6    26    1
    11     7     8   ar
    12     7    27    1
    13     8     9    1
    14     8    22   ar
    15     9    10    1
    16    10    11   ar
    17    11    12   ar
    18    12    13   ar
    19    12    28    1
    20    13    14   ar
    21    14    15    1
    22    14    21   ar
    23    15    16   ar
    24    16    17   ar
    25    16    29    1
    26    17    18   ar
    27    17    30    1
    28    18    19   ar
    29    18    31    1
    30    19    20   ar
    31    19    32    1
    32    20    15   ar
    33    20    33    1
    34    21    10   ar
    35    22     4   ar
    36    22    34    1
@<TRIPOS>MOLECULE
*****
 34 36 0 0 0
SMALL
GASTEIGER

@<TRIPOS>ATOM
      1 N          -5.2400    0.6092   -3.2520 N.am    1  UNL11      -0.3253
      2 C          -4.0176   -0.0754   -3.0225 C.2     1  UNL11       0.2416
      3 O          -3.2200   -0.2321   -3.9621 O.2     1  UNL11      -0.2704
      4 C          -3.7183   -0.5809   -1.6968 C.ar    1  UNL11       0.0400
      5 C          -4.7143   -0.9721   -0.8262 C.ar    1  UNL11      -0.0494
      6 C          -4.4151   -1.4563    0.4450 C.ar    1  UNL11      -0.0576
      7 C          -3.0743   -1.5336    0.8115 C.ar    1  UNL11      -0.0192
      8 C          -2.0672   -1.1512   -0.0351 C.ar    1  UNL11       0.1326
      9 O          -0.7582   -1.2470    0.3745 O.3     1  UNL11      -0.4235
     10 C           0.2297   -0.3740   -0.0866 C.ar    1  UNL11       0.3267
     11 N          -0.1419    0.5805   -0.9563 N.ar    1  UNL11      -0.1831
     12 C           0.7145    1.4781   -1.4705 C.ar    1  UNL11       0.1237
     13 N           1.9915    1.3930   -1.0797 N.ar    1  UNL11      -0.2157
     14 C           2.3821    0.4302   -0.1985 C.ar    1  UNL11       0.1666
     15 C           3.7979    0.4085    0.1756 C.ar    1  UNL11       0.0193
     16 C           4.2850   -0.5384    1.0512 C.ar    1  UNL11      -0.0510
     17 C           5.6252   -0.5737    1.4171 C.ar    1  UNL11      -0.0611
     18 C           6.5231    0.3623    0.8993 C.ar    1  UNL11      -0.0617
     19 C           6.0354    1.3085    0.0240 C.ar    1  UNL11      -0.0611
     20 C           4.7008    1.3222   -0.3233 C.ar    1  UNL11      -0.0510
     21 N           1.4971   -0.4436    0.2892 N.ar    1  UNL11      -0.1748
     22 C          -2.3787   -0.6750   -1.2878 C.ar    1  UNL11      -0.0071
     23 H          -6.1540    0.1957   -2.9511 H       1  UNL11       0.1453
     24 H          -5.2884    1.5361   -3.7204 H       1  UNL11       0.1453
     25 H          -5.7383   -0.9131   -1.1063 H       1  UNL11       0.0625
     26 H          -5.2086   -1.7588    1.1152 H       1  UNL11       0.0619
     27 H          -2.8455   -1.9111    1.8019 H       1  UNL11       0.0654
     28 H           0.3317    2.2034   -2.1566 H       1  UNL11       0.1049
     29 H           3.6058   -1.2696    1.4615 H       1  UNL11       0.0625
     30 H           5.9980   -1.3165    2.1016 H       1  UNL11       0.0618
     31 H           7.5572    0.3008    1.2089 H       1  UNL11       0.0618
     32 H           6.7385    2.0264   -0.3696 H       1  UNL11       0.0618
     33 H           4.3305    2.0660   -1.0080 H       1  UNL11       0.0625
     34 H          -1.6193   -0.3656   -1.9797 H       1  UNL11       0.0662
@<TRIPOS>BOND
     1     1     2   am
     2     1    23    1
     3     1    24    1
     4     2     3    2
     5     2     4    1
     6     4     5   ar
     7     5     6   ar
     8     5    25    1
     9     6     7   ar
    10     6    26    1
    11     7     8   ar
    12     7    27    1
    13     8     9    1
    14     8    22   ar
    15     9    10    1
    16    10    11   ar
    17    11    12   ar
    18    12    13   ar
    19    12    28    1
    20    13    14   ar
    21    14    15    1
    22    14    21   ar
    23    15    16   ar
    24    16    17   ar
    25    16    29    1
    26    17    18   ar
    27    17    30    1
    28    18    19   ar
    29    18    31    1
    30    19    20   ar
    31    19    32    1
    32    20    15   ar
    33    20    33    1
    34    21    10   ar
    35    22     4   ar
    36    22    34    1
@<TRIPOS>MOLECULE
*****
 34 36 0 0 0
SMALL
GASTEIGER

@<TRIPOS>ATOM
      1 N          -3.9104   -1.7010   -4.7773 N.am    1  UNL11      -0.3253
      2 C          -2.7737   -1.9866   -3.9759 C.2     1  UNL11       0.2416
      3 O          -1.6925   -2.2577   -4.5247 O.2     1  UNL11      -0.2704
      4 C          -2.8911   -1.9575   -2.5310 C.ar    1  UNL11       0.0400
      5 C          -4.0766   -2.2568   -1.8920 C.ar    1  UNL11      -0.0494
      6 C          -4.1778   -2.2257   -0.5032 C.ar    1  UNL11      -0.0576
      7 C          -3.0410   -1.8819    0.2232 C.ar    1  UNL11      -0.0192
      8 C          -1.8525   -1.5806   -0.3881 C.ar    1  UNL11       0.1326
      9 O          -0.7582   -1.2470    0.3745 O.3     1  UNL11      -0.4235
     10 C           0.2297   -0.3740   -0.0866 C.ar    1  UNL11       0.3267
     11 N          -0.1419    0.5805   -0.9563 N.ar    1  UNL11      -0.1831
     12 C           0.7145    1.4781   -1.4705 C.ar    1  UNL11       0.1237
     13 N           1.9915    1.3930   -1.0797 N.ar    1  UNL11      -0.2157
     14 C           2.3821    0.4302   -0.1985 C.ar    1  UNL11       0.1666
     15 C           3.7979    0.4085    0.1756 C.ar    1  UNL11       0.0193
     16 C           4.1953   -0.0317    1.4202 C.ar    1  UNL11      -0.0510
     17 C           5.5341   -0.0589    1.7918 C.ar    1  UNL11      -0.0611
     18 C           6.5227    0.3647    0.9010 C.ar    1  UNL11      -0.0617
     19 C           6.1247    0.8045   -0.3429 C.ar    1  UNL11      -0.0611
     20 C           4.7894    0.8219   -0.6876 C.ar    1  UNL11      -0.0510
     21 N           1.4971   -0.4436    0.2892 N.ar    1  UNL11      -0.1748
     22 C          -1.7682   -1.6157   -1.7610 C.ar    1  UNL11      -0.0071
     23 H          -4.8232   -2.1866   -4.6104 H       1  UNL11       0.1453
     24 H          -3.8942   -1.0100   -5.5539 H       1  UNL11       0.1453
     25 H          -4.9446   -2.5193   -2.4470 H       1  UNL11       0.0625
     26 H          -5.1152   -2.4632   -0.0182 H       1  UNL11       0.0619
     27 H          -3.1239   -1.8589    1.3041 H       1  UNL11       0.0654
     28 H           0.3317    2.2034   -2.1566 H       1  UNL11       0.1049
     29 H           3.4453   -0.3628    2.1217 H       1  UNL11       0.0625
     30 H           5.8364   -0.4041    2.7659 H       1  UNL11       0.0618
     31 H           7.5525    0.3279    1.2285 H       1  UNL11       0.0618
     32 H           6.8973    1.1293   -1.0228 H       1  UNL11       0.0618
     33 H           4.4896    1.1674   -1.6622 H       1  UNL11       0.0625
     34 H          -0.8560   -1.3865   -2.2772 H       1  UNL11       0.0662
@<TRIPOS>BOND
     1     1     2   am
     2     1    23    1
     3     1    24    1
     4     2     3    2
     5     2     4    1
     6     4     5   ar
     7     5     6   ar
     8     5    25    1
     9     6     7   ar
    10     6    26    1
    11     7     8   ar
    12     7    27    1
    13     8     9    1
    14     8    22   ar
    15     9    10    1
    16    10    11   ar
    17    11    12   ar
    18    12    13   ar
    19    12    28    1
    20    13    14   ar
    21    14    15    1
    22    14    21   ar
    23    15    16   ar
    24    16    17   ar
    25    16    29    1
    26    17    18   ar
    27    17    30    1
    28    18    19   ar
    29    18    31    1
    30    19    20   ar
    31    19    32    1
    32    20    15   ar
    33    20    33    1
    34    21    10   ar
    35    22     4   ar
    36    22    34    1
@<TRIPOS>MOLECULE
*****
 34 36 0 0 0
SMALL
GASTEIGER

@<TRIPOS>ATOM
      1 N           2.1402   -1.6345    4.5748 N.am    1  UNL11      -0.3253
      2 C           1.8406   -2.9402    4.1047 C.2     1  UNL11       0.2416
      3 O           2.4898   -3.9080    4.5356 O.2     1  UNL11      -0.2704
      4 C           0.7830   -3.1250    3.1303 C.ar    1  UNL11       0.0400
      5 C           0.0348   -4.2830    3.0804 C.ar    1  UNL11      -0.0494
      6 C          -0.9789   -4.4496    2.1399 C.ar    1  UNL11      -0.0576
      7 C          -1.2150   -3.4070    1.2481 C.ar    1  UNL11      -0.0192
      8 C          -0.4859   -2.2474    1.2775 C.ar    1  UNL11       0.1326
      9 O          -0.7582   -1.2470    0.3745 O.3     1  UNL11      -0.4235
     10 C           0.2297   -0.3740   -0.0866 C.ar    1  UNL11       0.3267
     11 N          -0.1419    0.5805   -0.9563 N.ar    1  UNL11      -0.1831
     12 C           0.7145    1.4781   -1.4705 C.ar    1  UNL11       0.1237
     13 N           1.9915    1.3930   -1.0797 N.ar    1  UNL11      -0.2157
     14 C           2.3821    0.4302   -0.1985 C.ar    1  UNL11       0.1666
     15 C           3.7979    0.4085    0.1756 C.ar    1  UNL11       0.0193
     16 C           4.7693    0.8412   -0.7018 C.ar    1  UNL11      -0.0510
     17 C           6.1172    0.8275   -0.3634 C.ar    1  UNL11      -0.0611
     18 C           6.5254    0.3688    0.8909 C.ar    1  UNL11      -0.0617
     19 C           5.5538   -0.0635    1.7673 C.ar    1  UNL11      -0.0611
     20 C           4.2226   -0.0399    1.4075 C.ar    1  UNL11      -0.0510
     21 N           1.4971   -0.4436    0.2892 N.ar    1  UNL11      -0.1748
     22 C           0.5124   -2.0978    2.2125 C.ar    1  UNL11      -0.0071
     23 H           2.3025   -0.8450    3.9061 H       1  UNL11       0.1453
     24 H           2.2121   -1.4012    5.5854 H       1  UNL11       0.1453
     25 H           0.2153   -5.0791    3.7616 H       1  UNL11       0.0625
     26 H          -1.5560   -5.3643    2.1148 H       1  UNL11       0.0619
     27 H          -2.0051   -3.5405    0.5175 H       1  UNL11       0.0654
     28 H           0.3317    2.2034   -2.1566 H       1  UNL11       0.1049
     29 H           4.4725    1.1990   -1.6754 H       1  UNL11       0.0625
     30 H           6.8699    1.1671   -1.0543 H       1  UNL11       0.0618
     31 H           7.5831    0.3743    1.1152 H       1  UNL11       0.0618
     32 H           5.8811   -0.4157    2.7335 H       1  UNL11       0.0618
     33 H           3.4717   -0.3800    2.1001 H       1  UNL11       0.0625
     34 H           1.1055   -1.2054    2.2680 H       1  UNL11       0.0662
@<TRIPOS>BOND
     1     1     2   am
     2     1    23    1
     3     1    24    1
     4     2     3    2
     5     2     4    1
     6     4     5   ar
     7     5     6   ar
     8     5    25    1
     9     6     7   ar
    10     6    26    1
    11     7     8   ar
    12     7    27    1
    13     8     9    1
    14     8    22   ar
    15     9    10    1
    16    10    11   ar
    17    11    12   ar
    18    12    13   ar
    19    12    28    1
    20    13    14   ar
    21    14    15    1
    22    14    21   ar
    23    15    16   ar
    24    16    17   ar
    25    16    29    1
    26    17    18   ar
    27    17    30    1
    28    18    19   ar
    29    18    31    1
    30    19    20   ar
    31    19    32    1
    32    20    15   ar
    33    20    33    1
    34    21    10   ar
    35    22     4   ar
    36    22    34    1
