@<TRIPOS>MOLECULE
*****
 40 42 0 0 0
SMALL
GASTEIGER

@<TRIPOS>ATOM
      1 C          -1.6786    1.0608    1.4282 C.3     1  UNL11      -0.0648
      2 C          -0.4470    0.7210    2.1772 C.3     1  UNL11      -0.0502
      3 C           0.6243    0.0168    1.2991 C.3     1  UNL11      -0.0294
      4 C           1.1005    0.8206    0.1565 C.3     1  UNL11      -0.0471
      5 C           0.1770    1.3002   -0.8845 C.3     1  UNL11      -0.0485
      6 C          -0.5914    0.2417   -1.6426 C.3     1  UNL11      -0.0258
      7 C          -1.4164   -0.4979   -0.6365 C.2     1  UNL11      -0.0023
      8 C          -1.2165   -1.8702   -0.4783 C.2     1  UNL11       0.0850
      9 C          -1.9174   -2.5457    0.4863 C.2     1  UNL11       0.4852
     10 O          -1.7116   -3.8009    0.6063 O.2     1  UNL11      -0.1908
     11 O          -2.7741   -1.9470    1.2702 O.2     1  UNL11      -0.4698
     12 C          -2.9995   -0.6671    1.1634 C.2     1  UNL11       0.5347
     13 N          -3.8789   -0.0353    1.9573 N.am    1  UNL11      -0.0043
     14 C          -4.1421    1.2781    1.8746 C.2     1  UNL11       0.6699
     15 O          -4.9928    1.8127    2.6651 O.2     1  UNL11      -0.1525
     16 N          -3.5139    2.0306    0.9638 N.am    1  UNL11      -0.0479
     17 C          -2.6038    1.4497    0.1228 C.2     1  UNL11       0.4376
     18 O          -2.0286    2.1620   -0.7249 O.2     1  UNL11      -0.2132
     19 C          -2.3221    0.1060    0.1975 C.2     1  UNL11       0.2614
     20 C           0.8644   -1.4459    1.5038 C.3     1  UNL11      -0.0469
     21 C           1.7276   -0.4855    2.2476 C.3     1  UNL11      -0.0469
     22 H          -2.2968    0.2471    1.0633 H       1  UNL11       0.0230
     23 H          -1.4279    1.8171    0.6387 H       1  UNL11       0.0230
     24 H          -2.3256    1.6457    2.1411 H       1  UNL11       0.0230
     25 H           0.0449    1.6928    2.4596 H       1  UNL11       0.0268
     26 H          -0.6330    0.0879    3.0589 H       1  UNL11       0.0268
     27 H           1.8585    0.1586   -0.3909 H       1  UNL11       0.0271
     28 H           1.7756    1.6407    0.5491 H       1  UNL11       0.0271
     29 H          -0.4784    2.1052   -0.4581 H       1  UNL11       0.0269
     30 H           0.8242    1.8964   -1.6181 H       1  UNL11       0.0269
     31 H           0.0814   -0.5585   -2.0511 H       1  UNL11       0.0314
     32 H          -1.1420    0.7207   -2.4531 H       1  UNL11       0.0314
     33 H          -0.5105   -2.3498   -1.1285 H       1  UNL11       0.0750
     34 H          -4.3753   -0.6127    2.6714 H       1  UNL11       0.4630
     35 H          -3.6665    3.0527    0.8399 H       1  UNL11       0.4575
     36 H           1.3355   -2.1319    0.7911 H       1  UNL11       0.0271
     37 H           0.1111   -2.0205    2.1260 H       1  UNL11       0.0271
     38 H           1.6064   -0.3709    3.3246 H       1  UNL11       0.0271
     39 H           2.7567   -0.2944    1.9073 H       1  UNL11       0.0271
     40 H          -3.2330   -2.4444    1.9183 H       1  UNL11       0.5697
@<TRIPOS>BOND
     1     1     2    1
     2     1    22    1
     3     1    23    1
     4     1    24    1
     5     2     3    1
     6     2    25    1
     7     2    26    1
     8     3     4    1
     9     3    20    1
    10     4     5    1
    11     4    27    1
    12     4    28    1
    13     5     6    1
    14     5    29    1
    15     5    30    1
    16     6     7    1
    17     6    31    1
    18     6    32    1
    19     7     8    2
    20     8     9    1
    21     8    33    1
    22     9    10    2
    23     9    11    1
    24    11    12    1
    25    12    13    1
    26    13    14   am
    27    13    34    1
    28    14    15    2
    29    14    16   am
    30    16    17   am
    31    16    35    1
    32    17    18    2
    33    17    19    1
    34    19     7    1
    35    19    12    2
    36    20    21    1
    37    20    36    1
    38    20    37    1
    39    21     3    1
    40    21    38    1
    41    21    39    1
    42    11    40    1
@<TRIPOS>MOLECULE
*****
 40 42 0 0 0
SMALL
GASTEIGER

@<TRIPOS>ATOM
      1 C           3.6865    0.6674    1.7718 C.3     1  UNL11      -0.0648
      2 C           3.0924   -0.4862    1.0581 C.3     1  UNL11      -0.0502
      3 C           2.2343   -0.0670   -0.1677 C.3     1  UNL11      -0.0294
      4 C           1.1005    0.8206    0.1565 C.3     1  UNL11      -0.0471
      5 C           0.1770    1.3002   -0.8845 C.3     1  UNL11      -0.0485
      6 C          -0.5914    0.2417   -1.6426 C.3     1  UNL11      -0.0258
      7 C           0.4225   -0.6440   -2.2964 C.2     1  UNL11      -0.0023
      8 C           1.7781   -0.3677   -2.1121 C.2     1  UNL11       0.0850
      9 C           2.7159   -1.2103   -2.6494 C.2     1  UNL11       0.4852
     10 O           3.9483   -0.9301   -2.4626 O.2     1  UNL11      -0.1908
     11 O           2.3846   -2.2722   -3.3345 O.2     1  UNL11      -0.4698
     12 C           1.1327   -2.5753   -3.5374 C.2     1  UNL11       0.5347
     13 N           0.7731   -3.6602   -4.2422 N.am    1  UNL11      -0.0043
     14 C          -0.5032   -4.0022   -4.4770 C.2     1  UNL11       0.6699
     15 O          -0.7714   -5.0511   -5.1569 O.2     1  UNL11      -0.1525
     16 N          -1.4978   -3.2452   -3.9994 N.am    1  UNL11      -0.0479
     17 C          -1.2011   -2.1250   -3.2714 C.2     1  UNL11       0.4376
     18 O          -2.1380   -1.4255   -2.8358 O.2     1  UNL11      -0.2132
     19 C           0.1015   -1.7634   -3.0207 C.2     1  UNL11       0.2614
     20 C           2.4436   -0.7857   -1.4634 C.3     1  UNL11      -0.0469
     21 C           3.2030    0.4758   -1.2336 C.3     1  UNL11      -0.0469
     22 H           3.0183    1.3513    2.2850 H       1  UNL11       0.0230
     23 H           4.4124    1.1833    1.0899 H       1  UNL11       0.0230
     24 H           4.3543    0.2315    2.5675 H       1  UNL11       0.0230
     25 H           3.9427   -1.0610    0.5969 H       1  UNL11       0.0268
     26 H           2.4716   -1.1266    1.7041 H       1  UNL11       0.0268
     27 H           1.5677    1.7646    0.6070 H       1  UNL11       0.0271
     28 H           0.5583    0.3986    1.0567 H       1  UNL11       0.0271
     29 H          -0.4784    2.1052   -0.4581 H       1  UNL11       0.0269
     30 H           0.8242    1.8964   -1.6181 H       1  UNL11       0.0269
     31 H          -1.1506    0.6694   -2.5168 H       1  UNL11       0.0314
     32 H          -1.2830   -0.2486   -0.9566 H       1  UNL11       0.0314
     33 H           2.0367    0.5074   -1.5478 H       1  UNL11       0.0750
     34 H           1.5409   -4.2579   -4.6200 H       1  UNL11       0.4630
     35 H          -2.5093   -3.4460   -4.1414 H       1  UNL11       0.4575
     36 H           1.7398   -0.8294   -2.3020 H       1  UNL11       0.0271
     37 H           3.0518   -1.7419   -1.4422 H       1  UNL11       0.0271
     38 H           4.2776    0.4358   -1.0562 H       1  UNL11       0.0271
     39 H           2.8817    1.4075   -1.7235 H       1  UNL11       0.0271
     40 H           3.0561   -2.8238   -3.6850 H       1  UNL11       0.5697
@<TRIPOS>BOND
     1     1     2    1
     2     1    22    1
     3     1    23    1
     4     1    24    1
     5     2     3    1
     6     2    25    1
     7     2    26    1
     8     3     4    1
     9     3    20    1
    10     4     5    1
    11     4    27    1
    12     4    28    1
    13     5     6    1
    14     5    29    1
    15     5    30    1
    16     6     7    1
    17     6    31    1
    18     6    32    1
    19     7     8    2
    20     8     9    1
    21     8    33    1
    22     9    10    2
    23     9    11    1
    24    11    12    1
    25    12    13    1
    26    13    14   am
    27    13    34    1
    28    14    15    2
    29    14    16   am
    30    16    17   am
    31    16    35    1
    32    17    18    2
    33    17    19    1
    34    19     7    1
    35    19    12    2
    36    20    21    1
    37    20    36    1
    38    20    37    1
    39    21     3    1
    40    21    38    1
    41    21    39    1
    42    11    40    1
@<TRIPOS>MOLECULE
*****
 40 42 0 0 0
SMALL
GASTEIGER

@<TRIPOS>ATOM
      1 C           1.2282   -1.2056    3.4324 C.3     1  UNL11      -0.0648
      2 C           1.7356   -0.3866    2.3076 C.3     1  UNL11      -0.0502
      3 C           0.6243    0.0168    1.2991 C.3     1  UNL11      -0.0294
      4 C           1.1005    0.8206    0.1565 C.3     1  UNL11      -0.0471
      5 C           0.1770    1.3002   -0.8845 C.3     1  UNL11      -0.0485
      6 C          -0.5914    0.2417   -1.6426 C.3     1  UNL11      -0.0258
      7 C           0.4225   -0.6440   -2.2964 C.2     1  UNL11      -0.0023
      8 C           1.3292   -1.3380   -1.4938 C.2     1  UNL11       0.0850
      9 C           2.2179   -2.2038   -2.0758 C.2     1  UNL11       0.4852
     10 O           3.0345   -2.8242   -1.3139 O.2     1  UNL11      -0.1908
     11 O           2.2481   -2.4050   -3.3663 O.2     1  UNL11      -0.4698
     12 C           1.4242   -1.7810   -4.1614 C.2     1  UNL11       0.5347
     13 N           1.4429   -1.9719   -5.4904 N.am    1  UNL11      -0.0043
     14 C           0.6157   -1.3452   -6.3412 C.2     1  UNL11       0.6699
     15 O           0.6905   -1.5770   -7.5962 O.2     1  UNL11      -0.1525
     16 N          -0.2893   -0.4759   -5.8768 N.am    1  UNL11      -0.0479
     17 C          -0.3629   -0.2352   -4.5316 C.2     1  UNL11       0.4376
     18 O          -1.2083    0.5811   -4.1124 O.2     1  UNL11      -0.2132
     19 C           0.4762   -0.8716   -3.6477 C.2     1  UNL11       0.2614
     20 C          -0.8045   -0.1868    1.6941 C.3     1  UNL11      -0.0469
     21 C          -0.1322   -1.2692    0.9213 C.3     1  UNL11      -0.0469
     22 H           0.8571   -2.2016    3.2139 H       1  UNL11       0.0230
     23 H           0.5149   -0.5888    4.0396 H       1  UNL11       0.0230
     24 H           2.0991   -1.3464    4.1331 H       1  UNL11       0.0230
     25 H           2.0651    0.5984    2.7404 H       1  UNL11       0.0268
     26 H           2.5457   -0.8743    1.7431 H       1  UNL11       0.0268
     27 H           1.8585    0.1586   -0.3909 H       1  UNL11       0.0271
     28 H           1.7756    1.6407    0.5491 H       1  UNL11       0.0271
     29 H          -0.4784    2.1052   -0.4581 H       1  UNL11       0.0269
     30 H           0.8242    1.8964   -1.6181 H       1  UNL11       0.0269
     31 H          -1.1506    0.6694   -2.5168 H       1  UNL11       0.0314
     32 H          -1.2830   -0.2486   -0.9566 H       1  UNL11       0.0314
     33 H           1.2941   -1.1637   -0.4357 H       1  UNL11       0.0750
     34 H           2.1453   -2.6477   -5.8639 H       1  UNL11       0.4630
     35 H          -0.9619    0.0475   -6.4744 H       1  UNL11       0.4575
     36 H          -1.6764    0.3092    1.2531 H       1  UNL11       0.0271
     37 H          -1.0218   -0.4158    2.7826 H       1  UNL11       0.0271
     38 H           0.1209   -2.2082    1.4132 H       1  UNL11       0.0271
     39 H          -0.3406   -1.3882   -0.1528 H       1  UNL11       0.0271
     40 H           2.8707   -3.0060   -3.7256 H       1  UNL11       0.5697
@<TRIPOS>BOND
     1     1     2    1
     2     1    22    1
     3     1    23    1
     4     1    24    1
     5     2     3    1
     6     2    25    1
     7     2    26    1
     8     3     4    1
     9     3    20    1
    10     4     5    1
    11     4    27    1
    12     4    28    1
    13     5     6    1
    14     5    29    1
    15     5    30    1
    16     6     7    1
    17     6    31    1
    18     6    32    1
    19     7     8    2
    20     8     9    1
    21     8    33    1
    22     9    10    2
    23     9    11    1
    24    11    12    1
    25    12    13    1
    26    13    14   am
    27    13    34    1
    28    14    15    2
    29    14    16   am
    30    16    17   am
    31    16    35    1
    32    17    18    2
    33    17    19    1
    34    19     7    1
    35    19    12    2
    36    20    21    1
    37    20    36    1
    38    20    37    1
    39    21     3    1
    40    21    38    1
    41    21    39    1
    42    11    40    1
@<TRIPOS>MOLECULE
*****
 40 42 0 0 0
SMALL
GASTEIGER

@<TRIPOS>ATOM
      1 C           1.2282   -1.2056    3.4324 C.3     1  UNL11      -0.0648
      2 C           1.7356   -0.3866    2.3076 C.3     1  UNL11      -0.0502
      3 C           0.6243    0.0168    1.2991 C.3     1  UNL11      -0.0294
      4 C           1.1005    0.8206    0.1565 C.3     1  UNL11      -0.0471
      5 C           0.1770    1.3002   -0.8845 C.3     1  UNL11      -0.0485
      6 C          -0.5914    0.2417   -1.6426 C.3     1  UNL11      -0.0258
      7 C           0.4225   -0.6440   -2.2964 C.2     1  UNL11      -0.0023
      8 C           1.6547   -0.1014   -2.6642 C.2     1  UNL11       0.0850
      9 C           2.6159   -0.9171   -3.2016 C.2     1  UNL11       0.4852
     10 O           3.7332   -0.3902   -3.5275 O.2     1  UNL11      -0.1908
     11 O           2.4193   -2.1956   -3.3844 O.2     1  UNL11      -0.4698
     12 C           1.2859   -2.7526   -3.0596 C.2     1  UNL11       0.5347
     13 N           1.0641   -4.0641   -3.2437 N.am    1  UNL11      -0.0043
     14 C          -0.0896   -4.6725   -2.9275 C.2     1  UNL11       0.6699
     15 O          -0.2298   -5.9269   -3.1305 O.2     1  UNL11      -0.1525
     16 N          -1.0957   -3.9664   -2.3988 N.am    1  UNL11      -0.0479
     17 C          -0.9360   -2.6243   -2.1838 C.2     1  UNL11       0.4376
     18 O          -1.8838   -1.9770   -1.6945 O.2     1  UNL11      -0.2132
     19 C           0.2409   -1.9879   -2.5004 C.2     1  UNL11       0.2614
     20 C          -0.8045   -0.1868    1.6941 C.3     1  UNL11      -0.0469
     21 C          -0.1322   -1.2692    0.9213 C.3     1  UNL11      -0.0469
     22 H           0.8571   -2.2016    3.2139 H       1  UNL11       0.0230
     23 H           0.5149   -0.5888    4.0396 H       1  UNL11       0.0230
     24 H           2.0991   -1.3464    4.1331 H       1  UNL11       0.0230
     25 H           2.0651    0.5984    2.7404 H       1  UNL11       0.0268
     26 H           2.5457   -0.8743    1.7431 H       1  UNL11       0.0268
     27 H           1.8585    0.1586   -0.3909 H       1  UNL11       0.0271
     28 H           1.7756    1.6407    0.5491 H       1  UNL11       0.0271
     29 H          -0.4784    2.1052   -0.4581 H       1  UNL11       0.0269
     30 H           0.8242    1.8964   -1.6181 H       1  UNL11       0.0269
     31 H          -1.1506    0.6694   -2.5168 H       1  UNL11       0.0314
     32 H          -1.2830   -0.2486   -0.9566 H       1  UNL11       0.0314
     33 H           1.8033    0.9498   -2.5090 H       1  UNL11       0.0750
     34 H           1.8421   -4.6248   -3.6559 H       1  UNL11       0.4630
     35 H          -2.0177   -4.3680   -2.1301 H       1  UNL11       0.4575
     36 H          -1.6764    0.3092    1.2531 H       1  UNL11       0.0271
     37 H          -1.0218   -0.4158    2.7826 H       1  UNL11       0.0271
     38 H           0.1209   -2.2082    1.4132 H       1  UNL11       0.0271
     39 H          -0.3406   -1.3882   -0.1528 H       1  UNL11       0.0271
     40 H           3.1023   -2.7198   -3.7542 H       1  UNL11       0.5697
@<TRIPOS>BOND
     1     1     2    1
     2     1    22    1
     3     1    23    1
     4     1    24    1
     5     2     3    1
     6     2    25    1
     7     2    26    1
     8     3     4    1
     9     3    20    1
    10     4     5    1
    11     4    27    1
    12     4    28    1
    13     5     6    1
    14     5    29    1
    15     5    30    1
    16     6     7    1
    17     6    31    1
    18     6    32    1
    19     7     8    2
    20     8     9    1
    21     8    33    1
    22     9    10    2
    23     9    11    1
    24    11    12    1
    25    12    13    1
    26    13    14   am
    27    13    34    1
    28    14    15    2
    29    14    16   am
    30    16    17   am
    31    16    35    1
    32    17    18    2
    33    17    19    1
    34    19     7    1
    35    19    12    2
    36    20    21    1
    37    20    36    1
    38    20    37    1
    39    21     3    1
    40    21    38    1
    41    21    39    1
    42    11    40    1
@<TRIPOS>MOLECULE
*****
 40 42 0 0 0
SMALL
GASTEIGER

@<TRIPOS>ATOM
      1 C          -0.5182   -2.1066    2.0709 C.3     1  UNL11      -0.0648
      2 C          -0.0368   -1.3326    0.9036 C.3     1  UNL11      -0.0502
      3 C           0.6243    0.0168    1.2991 C.3     1  UNL11      -0.0294
      4 C           1.1005    0.8206    0.1565 C.3     1  UNL11      -0.0471
      5 C           0.1770    1.3002   -0.8845 C.3     1  UNL11      -0.0485
      6 C          -0.5914    0.2417   -1.6426 C.3     1  UNL11      -0.0258
      7 C          -1.4164   -0.4979   -0.6365 C.2     1  UNL11      -0.0023
      8 C          -1.2165   -1.8702   -0.4783 C.2     1  UNL11       0.0850
      9 C          -1.9174   -2.5457    0.4863 C.2     1  UNL11       0.4852
     10 O          -1.7116   -3.8009    0.6063 O.2     1  UNL11      -0.1908
     11 O          -2.7741   -1.9470    1.2702 O.2     1  UNL11      -0.4698
     12 C          -2.9995   -0.6671    1.1634 C.2     1  UNL11       0.5347
     13 N          -3.8789   -0.0353    1.9573 N.am    1  UNL11      -0.0043
     14 C          -4.1421    1.2781    1.8746 C.2     1  UNL11       0.6699
     15 O          -4.9928    1.8127    2.6651 O.2     1  UNL11      -0.1525
     16 N          -3.5139    2.0306    0.9638 N.am    1  UNL11      -0.0479
     17 C          -2.6038    1.4497    0.1228 C.2     1  UNL11       0.4376
     18 O          -2.0286    2.1620   -0.7249 O.2     1  UNL11      -0.2132
     19 C          -2.3221    0.1060    0.1975 C.2     1  UNL11       0.2614
     20 C           0.9638    0.2495    2.7378 C.3     1  UNL11      -0.0469
     21 C          -0.3533    0.7402    2.2426 C.3     1  UNL11      -0.0469
     22 H          -1.3420   -1.7014    2.6494 H       1  UNL11       0.0230
     23 H           0.3621   -2.4040    2.6991 H       1  UNL11       0.0230
     24 H          -0.8813   -3.0920    1.6632 H       1  UNL11       0.0230
     25 H           0.8118   -1.9156    0.4497 H       1  UNL11       0.0268
     26 H          -0.8257   -1.1207    0.1650 H       1  UNL11       0.0268
     27 H           1.8585    0.1586   -0.3909 H       1  UNL11       0.0271
     28 H           1.7756    1.6407    0.5491 H       1  UNL11       0.0271
     29 H          -0.4784    2.1052   -0.4581 H       1  UNL11       0.0269
     30 H           0.8242    1.8964   -1.6181 H       1  UNL11       0.0269
     31 H           0.0814   -0.5585   -2.0511 H       1  UNL11       0.0314
     32 H          -1.1420    0.7207   -2.4531 H       1  UNL11       0.0314
     33 H          -0.5105   -2.3498   -1.1285 H       1  UNL11       0.0750
     34 H          -4.3753   -0.6127    2.6714 H       1  UNL11       0.4630
     35 H          -3.6665    3.0527    0.8399 H       1  UNL11       0.4575
     36 H           1.6841    0.9789    3.1246 H       1  UNL11       0.0271
     37 H           0.9302   -0.6420    3.4369 H       1  UNL11       0.0271
     38 H          -1.2696    0.2404    2.5561 H       1  UNL11       0.0271
     39 H          -0.4969    1.8109    2.0324 H       1  UNL11       0.0271
     40 H          -3.2330   -2.4444    1.9183 H       1  UNL11       0.5697
@<TRIPOS>BOND
     1     1     2    1
     2     1    22    1
     3     1    23    1
     4     1    24    1
     5     2     3    1
     6     2    25    1
     7     2    26    1
     8     3     4    1
     9     3    20    1
    10     4     5    1
    11     4    27    1
    12     4    28    1
    13     5     6    1
    14     5    29    1
    15     5    30    1
    16     6     7    1
    17     6    31    1
    18     6    32    1
    19     7     8    2
    20     8     9    1
    21     8    33    1
    22     9    10    2
    23     9    11    1
    24    11    12    1
    25    12    13    1
    26    13    14   am
    27    13    34    1
    28    14    15    2
    29    14    16   am
    30    16    17   am
    31    16    35    1
    32    17    18    2
    33    17    19    1
    34    19     7    1
    35    19    12    2
    36    20    21    1
    37    20    36    1
    38    20    37    1
    39    21     3    1
    40    21    38    1
    41    21    39    1
    42    11    40    1
@<TRIPOS>MOLECULE
*****
 40 42 0 0 0
SMALL
GASTEIGER

@<TRIPOS>ATOM
      1 C          -1.2147   -1.1647    0.0218 C.3     1  UNL11      -0.0648
      2 C          -0.0368   -1.3326    0.9036 C.3     1  UNL11      -0.0502
      3 C           0.6243    0.0168    1.2991 C.3     1  UNL11      -0.0294
      4 C           1.1005    0.8206    0.1565 C.3     1  UNL11      -0.0471
      5 C           0.1770    1.3002   -0.8845 C.3     1  UNL11      -0.0485
      6 C          -0.5914    0.2417   -1.6426 C.3     1  UNL11      -0.0258
      7 C          -1.4400    0.9582   -2.6458 C.2     1  UNL11      -0.0023
      8 C          -1.8883    2.2470   -2.3521 C.2     1  UNL11       0.0850
      9 C          -2.6089    2.9391   -3.2901 C.2     1  UNL11       0.4852
     10 O          -3.0044    4.1165   -2.9910 O.2     1  UNL11      -0.1908
     11 O          -2.8948    2.4321   -4.4596 O.2     1  UNL11      -0.4698
     12 C          -2.5015    1.2319   -4.7841 C.2     1  UNL11       0.5347
     13 N          -2.7891    0.6926   -5.9798 N.am    1  UNL11      -0.0043
     14 C          -2.4073   -0.5401   -6.3483 C.2     1  UNL11       0.6699
     15 O          -2.7170   -0.9885   -7.5048 O.2     1  UNL11      -0.1525
     16 N          -1.7011   -1.3022   -5.5051 N.am    1  UNL11      -0.0479
     17 C          -1.3730   -0.8131   -4.2698 C.2     1  UNL11       0.4376
     18 O          -0.7181   -1.5360   -3.4917 O.2     1  UNL11      -0.2132
     19 C          -1.7550    0.4486   -3.8793 C.2     1  UNL11       0.2614
     20 C           0.9638    0.2495    2.7378 C.3     1  UNL11      -0.0469
     21 C          -0.3533    0.7402    2.2426 C.3     1  UNL11      -0.0469
     22 H          -1.0537   -0.7790   -0.9796 H       1  UNL11       0.0230
     23 H          -2.0166   -0.6188    0.5848 H       1  UNL11       0.0230
     24 H          -1.6548   -2.1933   -0.1097 H       1  UNL11       0.0230
     25 H          -0.4147   -1.7351    1.8841 H       1  UNL11       0.0268
     26 H           0.7431   -1.9793    0.4719 H       1  UNL11       0.0268
     27 H           1.8585    0.1586   -0.3909 H       1  UNL11       0.0271
     28 H           1.7756    1.6407    0.5491 H       1  UNL11       0.0271
     29 H          -0.4784    2.1052   -0.4581 H       1  UNL11       0.0269
     30 H           0.8242    1.8964   -1.6181 H       1  UNL11       0.0269
     31 H          -1.3502   -0.2746   -0.9965 H       1  UNL11       0.0314
     32 H           0.1158   -0.4839   -2.0459 H       1  UNL11       0.0314
     33 H          -1.6469    2.6516   -1.3881 H       1  UNL11       0.0750
     34 H          -3.3400    1.2782   -6.6455 H       1  UNL11       0.4630
     35 H          -1.3716   -2.2659   -5.7199 H       1  UNL11       0.4575
     36 H           1.6841    0.9789    3.1246 H       1  UNL11       0.0271
     37 H           0.9302   -0.6420    3.4369 H       1  UNL11       0.0271
     38 H          -1.2696    0.2404    2.5561 H       1  UNL11       0.0271
     39 H          -0.4969    1.8109    2.0324 H       1  UNL11       0.0271
     40 H          -3.3893    2.9380   -5.0740 H       1  UNL11       0.5697
@<TRIPOS>BOND
     1     1     2    1
     2     1    22    1
     3     1    23    1
     4     1    24    1
     5     2     3    1
     6     2    25    1
     7     2    26    1
     8     3     4    1
     9     3    20    1
    10     4     5    1
    11     4    27    1
    12     4    28    1
    13     5     6    1
    14     5    29    1
    15     5    30    1
    16     6     7    1
    17     6    31    1
    18     6    32    1
    19     7     8    2
    20     8     9    1
    21     8    33    1
    22     9    10    2
    23     9    11    1
    24    11    12    1
    25    12    13    1
    26    13    14   am
    27    13    34    1
    28    14    15    2
    29    14    16   am
    30    16    17   am
    31    16    35    1
    32    17    18    2
    33    17    19    1
    34    19     7    1
    35    19    12    2
    36    20    21    1
    37    20    36    1
    38    20    37    1
    39    21     3    1
    40    21    38    1
    41    21    39    1
    42    11    40    1
@<TRIPOS>MOLECULE
*****
 40 42 0 0 0
SMALL
GASTEIGER

@<TRIPOS>ATOM
      1 C           3.8985    1.7789   -0.6501 C.3     1  UNL11      -0.0648
      2 C           3.2632    0.5423   -1.1601 C.3     1  UNL11      -0.0502
      3 C           2.2343   -0.0670   -0.1677 C.3     1  UNL11      -0.0294
      4 C           1.1005    0.8206    0.1565 C.3     1  UNL11      -0.0471
      5 C           0.1770    1.3002   -0.8845 C.3     1  UNL11      -0.0485
      6 C          -0.5914    0.2417   -1.6426 C.3     1  UNL11      -0.0258
      7 C          -1.4400    0.9582   -2.6458 C.2     1  UNL11      -0.0023
      8 C          -0.9196    1.2026   -3.9175 C.2     1  UNL11       0.0850
      9 C          -1.7105    1.7971   -4.8657 C.2     1  UNL11       0.4852
     10 O          -1.2049    2.0067   -6.0201 O.2     1  UNL11      -0.1908
     11 O          -2.9450    2.1473   -4.6205 O.2     1  UNL11      -0.4698
     12 C          -3.4794    1.9432   -3.4488 C.2     1  UNL11       0.5347
     13 N          -4.7452    2.2999   -3.1770 N.am    1  UNL11      -0.0043
     14 C          -5.3285    2.1117   -1.9831 C.2     1  UNL11       0.6699
     15 O          -6.5394    2.4765   -1.7963 O.2     1  UNL11      -0.1525
     16 N          -4.6427    1.5414   -0.9856 N.am    1  UNL11      -0.0479
     17 C          -3.3474    1.1529   -1.1953 C.2     1  UNL11       0.4376
     18 O          -2.7180    0.6266   -0.2552 O.2     1  UNL11      -0.2132
     19 C          -2.7375    1.3370   -2.4137 C.2     1  UNL11       0.2614
     20 C           2.6028   -1.3214    0.5601 C.3     1  UNL11      -0.0469
     21 C           1.8427   -1.4512   -0.7151 C.3     1  UNL11      -0.0469
     22 H           4.5524    1.7004    0.2123 H       1  UNL11       0.0230
     23 H           3.1145    2.5738   -0.5425 H       1  UNL11       0.0230
     24 H           4.5395    2.1694   -1.4902 H       1  UNL11       0.0230
     25 H           2.6308    0.8373   -2.0428 H       1  UNL11       0.0268
     26 H           3.9877   -0.2442   -1.4235 H       1  UNL11       0.0268
     27 H           1.5677    1.7646    0.6070 H       1  UNL11       0.0271
     28 H           0.5583    0.3986    1.0567 H       1  UNL11       0.0271
     29 H          -0.4784    2.1052   -0.4581 H       1  UNL11       0.0269
     30 H           0.8242    1.8964   -1.6181 H       1  UNL11       0.0269
     31 H          -1.3502   -0.2746   -0.9965 H       1  UNL11       0.0314
     32 H           0.1158   -0.4839   -2.0459 H       1  UNL11       0.0314
     33 H           0.0955    0.9104   -4.1059 H       1  UNL11       0.0750
     34 H          -5.2895    2.7461   -3.9478 H       1  UNL11       0.4630
     35 H          -5.0270    1.3645   -0.0345 H       1  UNL11       0.4575
     36 H           2.1458   -1.6936    1.4838 H       1  UNL11       0.0271
     37 H           3.6872   -1.6495    0.5270 H       1  UNL11       0.0271
     38 H           2.3394   -1.8399   -1.6040 H       1  UNL11       0.0271
     39 H           0.7650   -1.6731   -0.6922 H       1  UNL11       0.0271
     40 H          -3.4535    2.5508   -5.2962 H       1  UNL11       0.5697
@<TRIPOS>BOND
     1     1     2    1
     2     1    22    1
     3     1    23    1
     4     1    24    1
     5     2     3    1
     6     2    25    1
     7     2    26    1
     8     3     4    1
     9     3    20    1
    10     4     5    1
    11     4    27    1
    12     4    28    1
    13     5     6    1
    14     5    29    1
    15     5    30    1
    16     6     7    1
    17     6    31    1
    18     6    32    1
    19     7     8    2
    20     8     9    1
    21     8    33    1
    22     9    10    2
    23     9    11    1
    24    11    12    1
    25    12    13    1
    26    13    14   am
    27    13    34    1
    28    14    15    2
    29    14    16   am
    30    16    17   am
    31    16    35    1
    32    17    18    2
    33    17    19    1
    34    19     7    1
    35    19    12    2
    36    20    21    1
    37    20    36    1
    38    20    37    1
    39    21     3    1
    40    21    38    1
    41    21    39    1
    42    11    40    1
@<TRIPOS>MOLECULE
*****
 40 42 0 0 0
SMALL
GASTEIGER

@<TRIPOS>ATOM
      1 C           4.2304   -1.3623    0.6969 C.3     1  UNL11      -0.0648
      2 C           3.0924   -0.4862    1.0581 C.3     1  UNL11      -0.0502
      3 C           2.2343   -0.0670   -0.1677 C.3     1  UNL11      -0.0294
      4 C           1.1005    0.8206    0.1565 C.3     1  UNL11      -0.0471
      5 C           0.1770    1.3002   -0.8845 C.3     1  UNL11      -0.0485
      6 C          -0.5914    0.2417   -1.6426 C.3     1  UNL11      -0.0258
      7 C           0.4225   -0.6440   -2.2964 C.2     1  UNL11      -0.0023
      8 C           1.3282   -0.0817   -3.1972 C.2     1  UNL11       0.0850
      9 C           2.3040   -0.8690   -3.7505 C.2     1  UNL11       0.4852
     10 O           3.1179   -0.3243   -4.5710 O.2     1  UNL11      -0.1908
     11 O           2.4182   -2.1384   -3.4636 O.2     1  UNL11      -0.4698
     12 C           1.5972   -2.7136   -2.6297 C.2     1  UNL11       0.5347
     13 N           1.6966   -4.0177   -2.3257 N.am    1  UNL11      -0.0043
     14 C           0.8684   -4.6465   -1.4773 C.2     1  UNL11       0.6699
     15 O           1.0235   -5.8920   -1.2344 O.2     1  UNL11      -0.1525
     16 N          -0.1219   -3.9700   -0.8838 N.am    1  UNL11      -0.0479
     17 C          -0.2793   -2.6366   -1.1489 C.2     1  UNL11       0.4376
     18 O          -1.2095   -2.0189   -0.5922 O.2     1  UNL11      -0.2132
     19 C           0.5629   -1.9786   -2.0137 C.2     1  UNL11       0.2614
     20 C           2.4436   -0.7857   -1.4634 C.3     1  UNL11      -0.0469
     21 C           3.2030    0.4758   -1.2336 C.3     1  UNL11      -0.0469
     22 H           5.0285   -0.9421    0.0936 H       1  UNL11       0.0230
     23 H           3.8318   -2.3304    0.2947 H       1  UNL11       0.0230
     24 H           4.7073   -1.6708    1.6698 H       1  UNL11       0.0230
     25 H           2.3827   -1.1058    1.6735 H       1  UNL11       0.0268
     26 H           3.3975    0.4296    1.5882 H       1  UNL11       0.0268
     27 H           1.5677    1.7646    0.6070 H       1  UNL11       0.0271
     28 H           0.5583    0.3986    1.0567 H       1  UNL11       0.0271
     29 H          -0.4784    2.1052   -0.4581 H       1  UNL11       0.0269
     30 H           0.8242    1.8964   -1.6181 H       1  UNL11       0.0269
     31 H          -1.1506    0.6694   -2.5168 H       1  UNL11       0.0314
     32 H          -1.2830   -0.2486   -0.9566 H       1  UNL11       0.0314
     33 H           1.2234    0.9617   -3.4244 H       1  UNL11       0.0750
     34 H           2.4654   -4.5555   -2.7832 H       1  UNL11       0.4630
     35 H          -0.8024   -4.3891   -0.2169 H       1  UNL11       0.4575
     36 H           1.7398   -0.8294   -2.3020 H       1  UNL11       0.0271
     37 H           3.0518   -1.7419   -1.4422 H       1  UNL11       0.0271
     38 H           4.2776    0.4358   -1.0562 H       1  UNL11       0.0271
     39 H           2.8817    1.4075   -1.7235 H       1  UNL11       0.0271
     40 H           3.0998   -2.6426   -3.8627 H       1  UNL11       0.5697
@<TRIPOS>BOND
     1     1     2    1
     2     1    22    1
     3     1    23    1
     4     1    24    1
     5     2     3    1
     6     2    25    1
     7     2    26    1
     8     3     4    1
     9     3    20    1
    10     4     5    1
    11     4    27    1
    12     4    28    1
    13     5     6    1
    14     5    29    1
    15     5    30    1
    16     6     7    1
    17     6    31    1
    18     6    32    1
    19     7     8    2
    20     8     9    1
    21     8    33    1
    22     9    10    2
    23     9    11    1
    24    11    12    1
    25    12    13    1
    26    13    14   am
    27    13    34    1
    28    14    15    2
    29    14    16   am
    30    16    17   am
    31    16    35    1
    32    17    18    2
    33    17    19    1
    34    19     7    1
    35    19    12    2
    36    20    21    1
    37    20    36    1
    38    20    37    1
    39    21     3    1
    40    21    38    1
    41    21    39    1
    42    11    40    1
@<TRIPOS>MOLECULE
*****
 40 42 0 0 0
SMALL
GASTEIGER

@<TRIPOS>ATOM
      1 C           4.3785   -0.3789   -1.4772 C.3     1  UNL11      -0.0648
      2 C           3.2632    0.5423   -1.1601 C.3     1  UNL11      -0.0502
      3 C           2.2343   -0.0670   -0.1677 C.3     1  UNL11      -0.0294
      4 C           1.1005    0.8206    0.1565 C.3     1  UNL11      -0.0471
      5 C           0.1770    1.3002   -0.8845 C.3     1  UNL11      -0.0485
      6 C          -0.5914    0.2417   -1.6426 C.3     1  UNL11      -0.0258
      7 C          -1.4164   -0.4979   -0.6365 C.2     1  UNL11      -0.0023
      8 C          -0.7721   -1.1463    0.4182 C.2     1  UNL11       0.0850
      9 C          -1.5201   -1.7695    1.3828 C.2     1  UNL11       0.4852
     10 O          -0.9006   -2.3535    2.3353 O.2     1  UNL11      -0.1908
     11 O          -2.8261   -1.7795    1.3507 O.2     1  UNL11      -0.4698
     12 C          -3.4774   -1.1903    0.3869 C.2     1  UNL11       0.5347
     13 N          -4.8191   -1.1933    0.3350 N.am    1  UNL11      -0.0043
     14 C          -5.5247   -0.6035   -0.6424 C.2     1  UNL11       0.6699
     15 O          -6.8023   -0.6464   -0.6266 O.2     1  UNL11      -0.1525
     16 N          -4.8914    0.0309   -1.6358 N.am    1  UNL11      -0.0479
     17 C          -3.5235    0.0728   -1.6435 C.2     1  UNL11       0.4376
     18 O          -2.9456    0.6637   -2.5782 O.2     1  UNL11      -0.2132
     19 C          -2.7875   -0.5247   -0.6478 C.2     1  UNL11       0.2614
     20 C           2.6028   -1.3214    0.5601 C.3     1  UNL11      -0.0469
     21 C           1.8427   -1.4512   -0.7151 C.3     1  UNL11      -0.0469
     22 H           4.1534   -1.2832   -2.0331 H       1  UNL11       0.0230
     23 H           4.9724   -0.5669   -0.5444 H       1  UNL11       0.0230
     24 H           5.0951    0.2082   -2.1182 H       1  UNL11       0.0230
     25 H           3.7018    1.4040   -0.5846 H       1  UNL11       0.0268
     26 H           2.7138    0.8855   -2.0507 H       1  UNL11       0.0268
     27 H           1.5677    1.7646    0.6070 H       1  UNL11       0.0271
     28 H           0.5583    0.3986    1.0567 H       1  UNL11       0.0271
     29 H          -0.4784    2.1052   -0.4581 H       1  UNL11       0.0269
     30 H           0.8242    1.8964   -1.6181 H       1  UNL11       0.0269
     31 H           0.0814   -0.5585   -2.0511 H       1  UNL11       0.0314
     32 H          -1.1420    0.7207   -2.4531 H       1  UNL11       0.0314
     33 H           0.3006   -1.1309    0.4327 H       1  UNL11       0.0750
     34 H          -5.3237   -1.6857    1.1048 H       1  UNL11       0.4630
     35 H          -5.3700    0.5093   -2.4267 H       1  UNL11       0.4575
     36 H           2.1458   -1.6936    1.4838 H       1  UNL11       0.0271
     37 H           3.6872   -1.6495    0.5270 H       1  UNL11       0.0271
     38 H           2.3394   -1.8399   -1.6040 H       1  UNL11       0.0271
     39 H           0.7650   -1.6731   -0.6922 H       1  UNL11       0.0271
     40 H          -3.3014   -2.2161    2.0299 H       1  UNL11       0.5697
@<TRIPOS>BOND
     1     1     2    1
     2     1    22    1
     3     1    23    1
     4     1    24    1
     5     2     3    1
     6     2    25    1
     7     2    26    1
     8     3     4    1
     9     3    20    1
    10     4     5    1
    11     4    27    1
    12     4    28    1
    13     5     6    1
    14     5    29    1
    15     5    30    1
    16     6     7    1
    17     6    31    1
    18     6    32    1
    19     7     8    2
    20     8     9    1
    21     8    33    1
    22     9    10    2
    23     9    11    1
    24    11    12    1
    25    12    13    1
    26    13    14   am
    27    13    34    1
    28    14    15    2
    29    14    16   am
    30    16    17   am
    31    16    35    1
    32    17    18    2
    33    17    19    1
    34    19     7    1
    35    19    12    2
    36    20    21    1
    37    20    36    1
    38    20    37    1
    39    21     3    1
    40    21    38    1
    41    21    39    1
    42    11    40    1
@<TRIPOS>MOLECULE
*****
 40 42 0 0 0
SMALL
GASTEIGER

@<TRIPOS>ATOM
      1 C           3.8985    1.7789   -0.6501 C.3     1  UNL11      -0.0648
      2 C           3.2632    0.5423   -1.1601 C.3     1  UNL11      -0.0502
      3 C           2.2343   -0.0670   -0.1677 C.3     1  UNL11      -0.0294
      4 C           1.1005    0.8206    0.1565 C.3     1  UNL11      -0.0471
      5 C           0.1770    1.3002   -0.8845 C.3     1  UNL11      -0.0485
      6 C          -0.5914    0.2417   -1.6426 C.3     1  UNL11      -0.0258
      7 C          -1.4400    0.9582   -2.6458 C.2     1  UNL11      -0.0023
      8 C          -1.3828    2.3515   -2.7050 C.2     1  UNL11       0.0850
      9 C          -2.1033    3.0146   -3.6637 C.2     1  UNL11       0.4852
     10 O          -2.0294    4.2898   -3.6919 O.2     1  UNL11      -0.1908
     11 O          -2.8491    2.3848   -4.5320 O.2     1  UNL11      -0.4698
     12 C          -2.9391    1.0840   -4.5196 C.2     1  UNL11       0.5347
     13 N          -3.7033    0.4196   -5.4014 N.am    1  UNL11      -0.0043
     14 C          -3.8260   -0.9167   -5.4173 C.2     1  UNL11       0.6699
     15 O          -4.5724   -1.4820   -6.2878 O.2     1  UNL11      -0.1525
     16 N          -3.1665   -1.6601   -4.5212 N.am    1  UNL11      -0.0479
     17 C          -2.3687   -1.0463   -3.5941 C.2     1  UNL11       0.4376
     18 O          -1.7630   -1.7510   -2.7614 O.2     1  UNL11      -0.2132
     19 C          -2.2314    0.3215   -3.5671 C.2     1  UNL11       0.2614
     20 C           2.6028   -1.3214    0.5601 C.3     1  UNL11      -0.0469
     21 C           1.8427   -1.4512   -0.7151 C.3     1  UNL11      -0.0469
     22 H           4.5524    1.7004    0.2123 H       1  UNL11       0.0230
     23 H           3.1145    2.5738   -0.5425 H       1  UNL11       0.0230
     24 H           4.5395    2.1694   -1.4902 H       1  UNL11       0.0230
     25 H           2.6308    0.8373   -2.0428 H       1  UNL11       0.0268
     26 H           3.9877   -0.2442   -1.4235 H       1  UNL11       0.0268
     27 H           1.5677    1.7646    0.6070 H       1  UNL11       0.0271
     28 H           0.5583    0.3986    1.0567 H       1  UNL11       0.0271
     29 H          -0.4784    2.1052   -0.4581 H       1  UNL11       0.0269
     30 H           0.8242    1.8964   -1.6181 H       1  UNL11       0.0269
     31 H          -1.3502   -0.2746   -0.9965 H       1  UNL11       0.0314
     32 H           0.1158   -0.4839   -2.0459 H       1  UNL11       0.0314
     33 H          -0.7669    2.8566   -1.9862 H       1  UNL11       0.0750
     34 H          -4.2228    0.9895   -6.1049 H       1  UNL11       0.4630
     35 H          -3.2131   -2.6988   -4.4713 H       1  UNL11       0.4575
     36 H           2.1458   -1.6936    1.4838 H       1  UNL11       0.0271
     37 H           3.6872   -1.6495    0.5270 H       1  UNL11       0.0271
     38 H           2.3394   -1.8399   -1.6040 H       1  UNL11       0.0271
     39 H           0.7650   -1.6731   -0.6922 H       1  UNL11       0.0271
     40 H          -3.3260    2.8747   -5.1727 H       1  UNL11       0.5697
@<TRIPOS>BOND
     1     1     2    1
     2     1    22    1
     3     1    23    1
     4     1    24    1
     5     2     3    1
     6     2    25    1
     7     2    26    1
     8     3     4    1
     9     3    20    1
    10     4     5    1
    11     4    27    1
    12     4    28    1
    13     5     6    1
    14     5    29    1
    15     5    30    1
    16     6     7    1
    17     6    31    1
    18     6    32    1
    19     7     8    2
    20     8     9    1
    21     8    33    1
    22     9    10    2
    23     9    11    1
    24    11    12    1
    25    12    13    1
    26    13    14   am
    27    13    34    1
    28    14    15    2
    29    14    16   am
    30    16    17   am
    31    16    35    1
    32    17    18    2
    33    17    19    1
    34    19     7    1
    35    19    12    2
    36    20    21    1
    37    20    36    1
    38    20    37    1
    39    21     3    1
    40    21    38    1
    41    21    39    1
    42    11    40    1
@<TRIPOS>MOLECULE
*****
 40 42 0 0 0
SMALL
GASTEIGER

@<TRIPOS>ATOM
      1 C           0.1562    3.5985    1.0001 C.3     1  UNL11      -0.0648
      2 C           1.0472    2.7474    1.8217 C.3     1  UNL11      -0.0502
      3 C           1.8946    1.7580    0.9745 C.3     1  UNL11      -0.0294
      4 C           1.1005    0.8206    0.1565 C.3     1  UNL11      -0.0471
      5 C           0.1770    1.3002   -0.8845 C.3     1  UNL11      -0.0485
      6 C          -0.5914    0.2417   -1.6426 C.3     1  UNL11      -0.0258
      7 C          -1.4164   -0.4979   -0.6365 C.2     1  UNL11      -0.0023
      8 C          -0.8737   -1.6245   -0.0167 C.2     1  UNL11       0.0850
      9 C          -1.5928   -2.2702    0.9550 C.2     1  UNL11       0.4852
     10 O          -1.0682   -3.2980    1.5035 O.2     1  UNL11      -0.1908
     11 O          -2.7788   -1.8666    1.3255 O.2     1  UNL11      -0.4698
     12 C          -3.3323   -0.8208    0.7775 C.2     1  UNL11       0.5347
     13 N          -4.5518   -0.3933    1.1424 N.am    1  UNL11      -0.0043
     14 C          -5.1566    0.6743    0.5988 C.2     1  UNL11       0.6699
     15 O          -6.3201    1.0240    0.9969 O.2     1  UNL11      -0.1525
     16 N          -4.5422    1.3749   -0.3614 N.am    1  UNL11      -0.0479
     17 C          -3.2963    0.9938   -0.7801 C.2     1  UNL11       0.4376
     18 O          -2.7366    1.6532   -1.6795 O.2     1  UNL11      -0.2132
     19 C          -2.6632   -0.0961   -0.2308 C.2     1  UNL11       0.2614
     20 C           3.3600    1.6511    1.2579 C.3     1  UNL11      -0.0469
     21 C           2.9216    2.5966    0.1927 C.3     1  UNL11      -0.0469
     22 H          -0.6603    3.1211    0.4683 H       1  UNL11       0.0230
     23 H           0.7842    4.2608    0.3482 H       1  UNL11       0.0230
     24 H          -0.3228    4.3275    1.7129 H       1  UNL11       0.0230
     25 H           1.8192    3.4257    2.2800 H       1  UNL11       0.0268
     26 H           0.5108    2.1655    2.5875 H       1  UNL11       0.0268
     27 H           0.4478    0.2413    0.8987 H       1  UNL11       0.0271
     28 H           1.7845   -0.0017   -0.2155 H       1  UNL11       0.0271
     29 H          -0.4784    2.1052   -0.4581 H       1  UNL11       0.0269
     30 H           0.8242    1.8964   -1.6181 H       1  UNL11       0.0269
     31 H           0.0814   -0.5585   -2.0511 H       1  UNL11       0.0314
     32 H          -1.1420    0.7207   -2.4531 H       1  UNL11       0.0314
     33 H           0.1008   -1.9457   -0.3302 H       1  UNL11       0.0750
     34 H          -5.0407   -0.9326    1.8905 H       1  UNL11       0.4630
     35 H          -4.9481    2.2113   -0.8295 H       1  UNL11       0.4575
     36 H           4.0148    0.8170    0.9824 H       1  UNL11       0.0271
     37 H           3.7469    2.1240    2.2126 H       1  UNL11       0.0271
     38 H           2.9830    3.6712    0.3641 H       1  UNL11       0.0271
     39 H           3.0368    2.3222   -0.8669 H       1  UNL11       0.0271
     40 H          -3.2381   -2.3351    1.9944 H       1  UNL11       0.5697
@<TRIPOS>BOND
     1     1     2    1
     2     1    22    1
     3     1    23    1
     4     1    24    1
     5     2     3    1
     6     2    25    1
     7     2    26    1
     8     3     4    1
     9     3    20    1
    10     4     5    1
    11     4    27    1
    12     4    28    1
    13     5     6    1
    14     5    29    1
    15     5    30    1
    16     6     7    1
    17     6    31    1
    18     6    32    1
    19     7     8    2
    20     8     9    1
    21     8    33    1
    22     9    10    2
    23     9    11    1
    24    11    12    1
    25    12    13    1
    26    13    14   am
    27    13    34    1
    28    14    15    2
    29    14    16   am
    30    16    17   am
    31    16    35    1
    32    17    18    2
    33    17    19    1
    34    19     7    1
    35    19    12    2
    36    20    21    1
    37    20    36    1
    38    20    37    1
    39    21     3    1
    40    21    38    1
    41    21    39    1
    42    11    40    1
@<TRIPOS>MOLECULE
*****
 40 42 0 0 0
SMALL
GASTEIGER

@<TRIPOS>ATOM
      1 C           0.1635    2.0669    2.7960 C.3     1  UNL11      -0.0648
      2 C           1.0472    2.7474    1.8217 C.3     1  UNL11      -0.0502
      3 C           1.8946    1.7580    0.9745 C.3     1  UNL11      -0.0294
      4 C           1.1005    0.8206    0.1565 C.3     1  UNL11      -0.0471
      5 C           0.1770    1.3002   -0.8845 C.3     1  UNL11      -0.0485
      6 C          -0.5914    0.2417   -1.6426 C.3     1  UNL11      -0.0258
      7 C           0.4225   -0.6440   -2.2964 C.2     1  UNL11      -0.0023
      8 C           0.1096   -1.9882   -2.5043 C.2     1  UNL11       0.0850
      9 C           1.0023   -2.7931   -3.1625 C.2     1  UNL11       0.4852
     10 O           0.6862   -4.0186   -3.3373 O.2     1  UNL11      -0.1908
     11 O           2.1462   -2.3445   -3.6063 O.2     1  UNL11      -0.4698
     12 C           2.4882   -1.0976   -3.4372 C.2     1  UNL11       0.5347
     13 N           3.6612   -0.6194   -3.8828 N.am    1  UNL11      -0.0043
     14 C           4.0510    0.6548   -3.7235 C.2     1  UNL11       0.6699
     15 O           5.1831    1.0404   -4.1751 O.2     1  UNL11      -0.1525
     16 N           3.2545    1.5244   -3.0911 N.am    1  UNL11      -0.0479
     17 C           2.0437    1.1029   -2.6124 C.2     1  UNL11       0.4376
     18 O           1.3128    1.9230   -2.0207 O.2     1  UNL11      -0.2132
     19 C           1.6299   -0.1987   -2.7703 C.2     1  UNL11       0.2614
     20 C           3.3600    1.6511    1.2579 C.3     1  UNL11      -0.0469
     21 C           2.9216    2.5966    0.1927 C.3     1  UNL11      -0.0469
     22 H           0.6255    1.5270    3.6160 H       1  UNL11       0.0230
     23 H          -0.5967    1.4606    2.2370 H       1  UNL11       0.0230
     24 H          -0.4595    2.8768    3.2704 H       1  UNL11       0.0230
     25 H           0.3803    3.2382    1.0597 H       1  UNL11       0.0268
     26 H           1.7346    3.4711    2.2870 H       1  UNL11       0.0268
     27 H           0.4478    0.2413    0.8987 H       1  UNL11       0.0271
     28 H           1.7845   -0.0017   -0.2155 H       1  UNL11       0.0271
     29 H          -0.4784    2.1052   -0.4581 H       1  UNL11       0.0269
     30 H           0.8242    1.8964   -1.6181 H       1  UNL11       0.0269
     31 H          -1.1506    0.6694   -2.5168 H       1  UNL11       0.0314
     32 H          -1.2830   -0.2486   -0.9566 H       1  UNL11       0.0314
     33 H          -0.8328   -2.3440   -2.1348 H       1  UNL11       0.0750
     34 H           4.2908   -1.2892   -4.3773 H       1  UNL11       0.4630
     35 H           3.4890    2.5256   -2.9294 H       1  UNL11       0.4575
     36 H           4.0148    0.8170    0.9824 H       1  UNL11       0.0271
     37 H           3.7469    2.1240    2.2126 H       1  UNL11       0.0271
     38 H           2.9830    3.6712    0.3641 H       1  UNL11       0.0271
     39 H           3.0368    2.3222   -0.8669 H       1  UNL11       0.0271
     40 H           2.7291   -2.9270   -4.0523 H       1  UNL11       0.5697
@<TRIPOS>BOND
     1     1     2    1
     2     1    22    1
     3     1    23    1
     4     1    24    1
     5     2     3    1
     6     2    25    1
     7     2    26    1
     8     3     4    1
     9     3    20    1
    10     4     5    1
    11     4    27    1
    12     4    28    1
    13     5     6    1
    14     5    29    1
    15     5    30    1
    16     6     7    1
    17     6    31    1
    18     6    32    1
    19     7     8    2
    20     8     9    1
    21     8    33    1
    22     9    10    2
    23     9    11    1
    24    11    12    1
    25    12    13    1
    26    13    14   am
    27    13    34    1
    28    14    15    2
    29    14    16   am
    30    16    17   am
    31    16    35    1
    32    17    18    2
    33    17    19    1
    34    19     7    1
    35    19    12    2
    36    20    21    1
    37    20    36    1
    38    20    37    1
    39    21     3    1
    40    21    38    1
    41    21    39    1
    42    11    40    1
@<TRIPOS>MOLECULE
*****
 40 42 0 0 0
SMALL
GASTEIGER

@<TRIPOS>ATOM
      1 C           4.3785   -0.3789   -1.4772 C.3     1  UNL11      -0.0648
      2 C           3.2632    0.5423   -1.1601 C.3     1  UNL11      -0.0502
      3 C           2.2343   -0.0670   -0.1677 C.3     1  UNL11      -0.0294
      4 C           1.1005    0.8206    0.1565 C.3     1  UNL11      -0.0471
      5 C           0.1770    1.3002   -0.8845 C.3     1  UNL11      -0.0485
      6 C          -0.5914    0.2417   -1.6426 C.3     1  UNL11      -0.0258
      7 C          -1.4164   -0.4979   -0.6365 C.2     1  UNL11      -0.0023
      8 C          -2.8051   -0.5036   -0.7763 C.2     1  UNL11       0.0850
      9 C          -3.5667   -1.2329    0.0990 C.2     1  UNL11       0.4852
     10 O          -4.8348   -1.2179   -0.0559 O.2     1  UNL11      -0.1908
     11 O          -3.0359   -1.9290    1.0687 O.2     1  UNL11      -0.4698
     12 C          -1.7442   -1.9568    1.2446 C.2     1  UNL11       0.5347
     13 N          -1.1808   -2.6633    2.2379 N.am    1  UNL11      -0.0043
     14 C           0.1427   -2.7124    2.4546 C.2     1  UNL11       0.6699
     15 O           0.6090   -3.4075    3.4209 O.2     1  UNL11      -0.1525
     16 N           0.9770   -2.0333    1.6587 N.am    1  UNL11      -0.0479
     17 C           0.4687   -1.2931    0.6260 C.2     1  UNL11       0.4376
     18 O           1.2575   -0.6610   -0.1056 O.2     1  UNL11      -0.2132
     19 C          -0.8846   -1.2352    0.3903 C.2     1  UNL11       0.2614
     20 C           2.6028   -1.3214    0.5601 C.3     1  UNL11      -0.0469
     21 C           1.8427   -1.4512   -0.7151 C.3     1  UNL11      -0.0469
     22 H           4.1534   -1.2832   -2.0331 H       1  UNL11       0.0230
     23 H           4.9724   -0.5669   -0.5444 H       1  UNL11       0.0230
     24 H           5.0951    0.2082   -2.1182 H       1  UNL11       0.0230
     25 H           3.7018    1.4040   -0.5846 H       1  UNL11       0.0268
     26 H           2.7138    0.8855   -2.0507 H       1  UNL11       0.0268
     27 H           1.5677    1.7646    0.6070 H       1  UNL11       0.0271
     28 H           0.5583    0.3986    1.0567 H       1  UNL11       0.0271
     29 H          -0.4784    2.1052   -0.4581 H       1  UNL11       0.0269
     30 H           0.8242    1.8964   -1.6181 H       1  UNL11       0.0269
     31 H           0.0814   -0.5585   -2.0511 H       1  UNL11       0.0314
     32 H          -1.1420    0.7207   -2.4531 H       1  UNL11       0.0314
     33 H          -3.2284    0.0723   -1.5765 H       1  UNL11       0.0750
     34 H          -1.8222   -3.1967    2.8653 H       1  UNL11       0.4630
     35 H           2.0123   -2.0226    1.7654 H       1  UNL11       0.4575
     36 H           2.1458   -1.6936    1.4838 H       1  UNL11       0.0271
     37 H           3.6872   -1.6495    0.5270 H       1  UNL11       0.0271
     38 H           2.3394   -1.8399   -1.6040 H       1  UNL11       0.0271
     39 H           0.7650   -1.6731   -0.6922 H       1  UNL11       0.0271
     40 H          -3.5912   -2.4153    1.6459 H       1  UNL11       0.5697
@<TRIPOS>BOND
     1     1     2    1
     2     1    22    1
     3     1    23    1
     4     1    24    1
     5     2     3    1
     6     2    25    1
     7     2    26    1
     8     3     4    1
     9     3    20    1
    10     4     5    1
    11     4    27    1
    12     4    28    1
    13     5     6    1
    14     5    29    1
    15     5    30    1
    16     6     7    1
    17     6    31    1
    18     6    32    1
    19     7     8    2
    20     8     9    1
    21     8    33    1
    22     9    10    2
    23     9    11    1
    24    11    12    1
    25    12    13    1
    26    13    14   am
    27    13    34    1
    28    14    15    2
    29    14    16   am
    30    16    17   am
    31    16    35    1
    32    17    18    2
    33    17    19    1
    34    19     7    1
    35    19    12    2
    36    20    21    1
    37    20    36    1
    38    20    37    1
    39    21     3    1
    40    21    38    1
    41    21    39    1
    42    11    40    1
@<TRIPOS>MOLECULE
*****
 40 42 0 0 0
SMALL
GASTEIGER

@<TRIPOS>ATOM
      1 C           4.3785   -0.3789   -1.4772 C.3     1  UNL11      -0.0648
      2 C           3.2632    0.5423   -1.1601 C.3     1  UNL11      -0.0502
      3 C           2.2343   -0.0670   -0.1677 C.3     1  UNL11      -0.0294
      4 C           1.1005    0.8206    0.1565 C.3     1  UNL11      -0.0471
      5 C           0.1770    1.3002   -0.8845 C.3     1  UNL11      -0.0485
      6 C          -0.5914    0.2417   -1.6426 C.3     1  UNL11      -0.0258
      7 C          -1.4164   -0.4979   -0.6365 C.2     1  UNL11      -0.0023
      8 C          -2.2221   -1.5522   -1.0692 C.2     1  UNL11       0.0850
      9 C          -2.9298   -2.2802   -0.1487 C.2     1  UNL11       0.4852
     10 O          -3.6577   -3.2391   -0.5766 O.2     1  UNL11      -0.1908
     11 O          -2.8779   -2.0210    1.1307 O.2     1  UNL11      -0.4698
     12 C          -2.1421   -1.0463    1.5877 C.2     1  UNL11       0.5347
     13 N          -2.0792   -0.7624    2.8986 N.am    1  UNL11      -0.0043
     14 C          -1.3386    0.2349    3.4066 C.2     1  UNL11       0.6699
     15 O          -1.3266    0.4469    4.6672 O.2     1  UNL11      -0.1525
     16 N          -0.6110    1.0095    2.5935 N.am    1  UNL11      -0.0479
     17 C          -0.6290    0.7740    1.2455 C.2     1  UNL11       0.4376
     18 O           0.0504    1.5067    0.4983 O.2     1  UNL11      -0.2132
     19 C          -1.3808   -0.2454    0.7110 C.2     1  UNL11       0.2614
     20 C           2.6028   -1.3214    0.5601 C.3     1  UNL11      -0.0469
     21 C           1.8427   -1.4512   -0.7151 C.3     1  UNL11      -0.0469
     22 H           4.1534   -1.2832   -2.0331 H       1  UNL11       0.0230
     23 H           4.9724   -0.5669   -0.5444 H       1  UNL11       0.0230
     24 H           5.0951    0.2082   -2.1182 H       1  UNL11       0.0230
     25 H           3.7018    1.4040   -0.5846 H       1  UNL11       0.0268
     26 H           2.7138    0.8855   -2.0507 H       1  UNL11       0.0268
     27 H           1.5677    1.7646    0.6070 H       1  UNL11       0.0271
     28 H           0.5583    0.3986    1.0567 H       1  UNL11       0.0271
     29 H          -0.4784    2.1052   -0.4581 H       1  UNL11       0.0269
     30 H           0.8242    1.8964   -1.6181 H       1  UNL11       0.0269
     31 H           0.0814   -0.5585   -2.0511 H       1  UNL11       0.0314
     32 H          -1.1420    0.7207   -2.4531 H       1  UNL11       0.0314
     33 H          -2.2561   -1.7546   -2.1223 H       1  UNL11       0.0750
     34 H          -2.6432   -1.3601    3.5423 H       1  UNL11       0.4630
     35 H          -0.0147    1.8003    2.9136 H       1  UNL11       0.4575
     36 H           2.1458   -1.6936    1.4838 H       1  UNL11       0.0271
     37 H           3.6872   -1.6495    0.5270 H       1  UNL11       0.0271
     38 H           2.3394   -1.8399   -1.6040 H       1  UNL11       0.0271
     39 H           0.7650   -1.6731   -0.6922 H       1  UNL11       0.0271
     40 H          -3.3764   -2.5429    1.7283 H       1  UNL11       0.5697
@<TRIPOS>BOND
     1     1     2    1
     2     1    22    1
     3     1    23    1
     4     1    24    1
     5     2     3    1
     6     2    25    1
     7     2    26    1
     8     3     4    1
     9     3    20    1
    10     4     5    1
    11     4    27    1
    12     4    28    1
    13     5     6    1
    14     5    29    1
    15     5    30    1
    16     6     7    1
    17     6    31    1
    18     6    32    1
    19     7     8    2
    20     8     9    1
    21     8    33    1
    22     9    10    2
    23     9    11    1
    24    11    12    1
    25    12    13    1
    26    13    14   am
    27    13    34    1
    28    14    15    2
    29    14    16   am
    30    16    17   am
    31    16    35    1
    32    17    18    2
    33    17    19    1
    34    19     7    1
    35    19    12    2
    36    20    21    1
    37    20    36    1
    38    20    37    1
    39    21     3    1
    40    21    38    1
    41    21    39    1
    42    11    40    1
@<TRIPOS>MOLECULE
*****
 40 42 0 0 0
SMALL
GASTEIGER

@<TRIPOS>ATOM
      1 C           3.8985    1.7789   -0.6501 C.3     1  UNL11      -0.0648
      2 C           3.2632    0.5423   -1.1601 C.3     1  UNL11      -0.0502
      3 C           2.2343   -0.0670   -0.1677 C.3     1  UNL11      -0.0294
      4 C           1.1005    0.8206    0.1565 C.3     1  UNL11      -0.0471
      5 C           0.1770    1.3002   -0.8845 C.3     1  UNL11      -0.0485
      6 C          -0.5914    0.2417   -1.6426 C.3     1  UNL11      -0.0258
      7 C          -1.4164   -0.4979   -0.6365 C.2     1  UNL11      -0.0023
      8 C          -1.2165   -1.8702   -0.4783 C.2     1  UNL11       0.0850
      9 C          -1.9174   -2.5457    0.4863 C.2     1  UNL11       0.4852
     10 O          -1.7116   -3.8009    0.6063 O.2     1  UNL11      -0.1908
     11 O          -2.7741   -1.9470    1.2702 O.2     1  UNL11      -0.4698
     12 C          -2.9995   -0.6671    1.1634 C.2     1  UNL11       0.5347
     13 N          -3.8789   -0.0353    1.9573 N.am    1  UNL11      -0.0043
     14 C          -4.1421    1.2781    1.8746 C.2     1  UNL11       0.6699
     15 O          -4.9928    1.8127    2.6651 O.2     1  UNL11      -0.1525
     16 N          -3.5139    2.0306    0.9638 N.am    1  UNL11      -0.0479
     17 C          -2.6038    1.4497    0.1228 C.2     1  UNL11       0.4376
     18 O          -2.0286    2.1620   -0.7249 O.2     1  UNL11      -0.2132
     19 C          -2.3221    0.1060    0.1975 C.2     1  UNL11       0.2614
     20 C           2.6028   -1.3214    0.5601 C.3     1  UNL11      -0.0469
     21 C           1.8427   -1.4512   -0.7151 C.3     1  UNL11      -0.0469
     22 H           4.5524    1.7004    0.2123 H       1  UNL11       0.0230
     23 H           3.1145    2.5738   -0.5425 H       1  UNL11       0.0230
     24 H           4.5395    2.1694   -1.4902 H       1  UNL11       0.0230
     25 H           2.6308    0.8373   -2.0428 H       1  UNL11       0.0268
     26 H           3.9877   -0.2442   -1.4235 H       1  UNL11       0.0268
     27 H           1.5677    1.7646    0.6070 H       1  UNL11       0.0271
     28 H           0.5583    0.3986    1.0567 H       1  UNL11       0.0271
     29 H          -0.4784    2.1052   -0.4581 H       1  UNL11       0.0269
     30 H           0.8242    1.8964   -1.6181 H       1  UNL11       0.0269
     31 H           0.0814   -0.5585   -2.0511 H       1  UNL11       0.0314
     32 H          -1.1420    0.7207   -2.4531 H       1  UNL11       0.0314
     33 H          -0.5105   -2.3498   -1.1285 H       1  UNL11       0.0750
     34 H          -4.3753   -0.6127    2.6714 H       1  UNL11       0.4630
     35 H          -3.6665    3.0527    0.8399 H       1  UNL11       0.4575
     36 H           2.1458   -1.6936    1.4838 H       1  UNL11       0.0271
     37 H           3.6872   -1.6495    0.5270 H       1  UNL11       0.0271
     38 H           2.3394   -1.8399   -1.6040 H       1  UNL11       0.0271
     39 H           0.7650   -1.6731   -0.6922 H       1  UNL11       0.0271
     40 H          -3.2330   -2.4444    1.9183 H       1  UNL11       0.5697
@<TRIPOS>BOND
     1     1     2    1
     2     1    22    1
     3     1    23    1
     4     1    24    1
     5     2     3    1
     6     2    25    1
     7     2    26    1
     8     3     4    1
     9     3    20    1
    10     4     5    1
    11     4    27    1
    12     4    28    1
    13     5     6    1
    14     5    29    1
    15     5    30    1
    16     6     7    1
    17     6    31    1
    18     6    32    1
    19     7     8    2
    20     8     9    1
    21     8    33    1
    22     9    10    2
    23     9    11    1
    24    11    12    1
    25    12    13    1
    26    13    14   am
    27    13    34    1
    28    14    15    2
    29    14    16   am
    30    16    17   am
    31    16    35    1
    32    17    18    2
    33    17    19    1
    34    19     7    1
    35    19    12    2
    36    20    21    1
    37    20    36    1
    38    20    37    1
    39    21     3    1
    40    21    38    1
    41    21    39    1
    42    11    40    1
@<TRIPOS>MOLECULE
*****
 40 42 0 0 0
SMALL
GASTEIGER

@<TRIPOS>ATOM
      1 C           3.6390    3.5926    1.0082 C.3     1  UNL11      -0.0648
      2 C           2.8452    2.6764    0.1575 C.3     1  UNL11      -0.0502
      3 C           1.8946    1.7580    0.9745 C.3     1  UNL11      -0.0294
      4 C           1.1005    0.8206    0.1565 C.3     1  UNL11      -0.0471
      5 C           0.1770    1.3002   -0.8845 C.3     1  UNL11      -0.0485
      6 C          -0.5914    0.2417   -1.6426 C.3     1  UNL11      -0.0258
      7 C          -1.4164   -0.4979   -0.6365 C.2     1  UNL11      -0.0023
      8 C          -2.8051   -0.5036   -0.7763 C.2     1  UNL11       0.0850
      9 C          -3.5667   -1.2329    0.0990 C.2     1  UNL11       0.4852
     10 O          -4.8348   -1.2179   -0.0559 O.2     1  UNL11      -0.1908
     11 O          -3.0359   -1.9290    1.0687 O.2     1  UNL11      -0.4698
     12 C          -1.7442   -1.9568    1.2446 C.2     1  UNL11       0.5347
     13 N          -1.1808   -2.6633    2.2379 N.am    1  UNL11      -0.0043
     14 C           0.1427   -2.7124    2.4546 C.2     1  UNL11       0.6699
     15 O           0.6090   -3.4075    3.4209 O.2     1  UNL11      -0.1525
     16 N           0.9770   -2.0333    1.6587 N.am    1  UNL11      -0.0479
     17 C           0.4687   -1.2931    0.6260 C.2     1  UNL11       0.4376
     18 O           1.2575   -0.6610   -0.1056 O.2     1  UNL11      -0.2132
     19 C          -0.8846   -1.2352    0.3903 C.2     1  UNL11       0.2614
     20 C           1.6629    2.0763    2.4181 C.3     1  UNL11      -0.0469
     21 C           2.7397    1.1026    2.0814 C.3     1  UNL11      -0.0469
     22 H           4.3822    3.1611    1.6706 H       1  UNL11       0.0230
     23 H           2.9433    4.3049    1.5247 H       1  UNL11       0.0230
     24 H           4.2056    4.2620    0.3012 H       1  UNL11       0.0230
     25 H           2.1391    3.3142   -0.4431 H       1  UNL11       0.0268
     26 H           3.4642    2.0350   -0.4892 H       1  UNL11       0.0268
     27 H           0.4478    0.2413    0.8987 H       1  UNL11       0.0271
     28 H           1.7845   -0.0017   -0.2155 H       1  UNL11       0.0271
     29 H          -0.4784    2.1052   -0.4581 H       1  UNL11       0.0269
     30 H           0.8242    1.8964   -1.6181 H       1  UNL11       0.0269
     31 H           0.0814   -0.5585   -2.0511 H       1  UNL11       0.0314
     32 H          -1.1420    0.7207   -2.4531 H       1  UNL11       0.0314
     33 H          -3.2284    0.0723   -1.5765 H       1  UNL11       0.0750
     34 H          -1.8222   -3.1967    2.8653 H       1  UNL11       0.4630
     35 H           2.0123   -2.0226    1.7654 H       1  UNL11       0.4575
     36 H           0.8202    1.7361    3.0303 H       1  UNL11       0.0271
     37 H           2.0087    3.0875    2.7958 H       1  UNL11       0.0271
     38 H           3.7845    1.3879    2.2026 H       1  UNL11       0.0271
     39 H           2.5687    0.0244    2.2210 H       1  UNL11       0.0271
     40 H          -3.5912   -2.4153    1.6459 H       1  UNL11       0.5697
@<TRIPOS>BOND
     1     1     2    1
     2     1    22    1
     3     1    23    1
     4     1    24    1
     5     2     3    1
     6     2    25    1
     7     2    26    1
     8     3     4    1
     9     3    20    1
    10     4     5    1
    11     4    27    1
    12     4    28    1
    13     5     6    1
    14     5    29    1
    15     5    30    1
    16     6     7    1
    17     6    31    1
    18     6    32    1
    19     7     8    2
    20     8     9    1
    21     8    33    1
    22     9    10    2
    23     9    11    1
    24    11    12    1
    25    12    13    1
    26    13    14   am
    27    13    34    1
    28    14    15    2
    29    14    16   am
    30    16    17   am
    31    16    35    1
    32    17    18    2
    33    17    19    1
    34    19     7    1
    35    19    12    2
    36    20    21    1
    37    20    36    1
    38    20    37    1
    39    21     3    1
    40    21    38    1
    41    21    39    1
    42    11    40    1
@<TRIPOS>MOLECULE
*****
 40 42 0 0 0
SMALL
GASTEIGER

@<TRIPOS>ATOM
      1 C           1.1159   -1.2418   -2.1116 C.3     1  UNL11      -0.0648
      2 C           1.8269   -1.4152   -0.8242 C.3     1  UNL11      -0.0502
      3 C           2.2343   -0.0670   -0.1677 C.3     1  UNL11      -0.0294
      4 C           1.1005    0.8206    0.1565 C.3     1  UNL11      -0.0471
      5 C           0.1770    1.3002   -0.8845 C.3     1  UNL11      -0.0485
      6 C          -0.5914    0.2417   -1.6426 C.3     1  UNL11      -0.0258
      7 C          -1.4164   -0.4979   -0.6365 C.2     1  UNL11      -0.0023
      8 C          -2.8051   -0.5036   -0.7763 C.2     1  UNL11       0.0850
      9 C          -3.5667   -1.2329    0.0990 C.2     1  UNL11       0.4852
     10 O          -4.8348   -1.2179   -0.0559 O.2     1  UNL11      -0.1908
     11 O          -3.0359   -1.9290    1.0687 O.2     1  UNL11      -0.4698
     12 C          -1.7442   -1.9568    1.2446 C.2     1  UNL11       0.5347
     13 N          -1.1808   -2.6633    2.2379 N.am    1  UNL11      -0.0043
     14 C           0.1427   -2.7124    2.4546 C.2     1  UNL11       0.6699
     15 O           0.6090   -3.4075    3.4209 O.2     1  UNL11      -0.1525
     16 N           0.9770   -2.0333    1.6587 N.am    1  UNL11      -0.0479
     17 C           0.4687   -1.2931    0.6260 C.2     1  UNL11       0.4376
     18 O           1.2575   -0.6610   -0.1056 O.2     1  UNL11      -0.2132
     19 C          -0.8846   -1.2352    0.3903 C.2     1  UNL11       0.2614
     20 C           3.6789    0.3229   -0.1782 C.3     1  UNL11      -0.0469
     21 C           3.1595   -0.4016    1.0160 C.3     1  UNL11      -0.0469
     22 H           1.6680   -0.8292   -2.9498 H       1  UNL11       0.0230
     23 H           0.1407   -0.7209   -1.9222 H       1  UNL11       0.0230
     24 H           0.7931   -2.2728   -2.4309 H       1  UNL11       0.0230
     25 H           1.0864   -1.8469   -0.0951 H       1  UNL11       0.0268
     26 H           2.7300   -2.0402   -0.9049 H       1  UNL11       0.0268
     27 H           1.5677    1.7646    0.6070 H       1  UNL11       0.0271
     28 H           0.5583    0.3986    1.0567 H       1  UNL11       0.0271
     29 H          -0.4784    2.1052   -0.4581 H       1  UNL11       0.0269
     30 H           0.8242    1.8964   -1.6181 H       1  UNL11       0.0269
     31 H           0.0814   -0.5585   -2.0511 H       1  UNL11       0.0314
     32 H          -1.1420    0.7207   -2.4531 H       1  UNL11       0.0314
     33 H          -3.2284    0.0723   -1.5765 H       1  UNL11       0.0750
     34 H          -1.8222   -3.1967    2.8653 H       1  UNL11       0.4630
     35 H           2.0123   -2.0226    1.7654 H       1  UNL11       0.4575
     36 H           4.0789    1.3344   -0.0456 H       1  UNL11       0.0271
     37 H           4.3775   -0.2648   -0.8500 H       1  UNL11       0.0271
     38 H           3.4561   -1.4352    1.1933 H       1  UNL11       0.0271
     39 H           2.9464    0.1506    1.9440 H       1  UNL11       0.0271
     40 H          -3.5912   -2.4153    1.6459 H       1  UNL11       0.5697
@<TRIPOS>BOND
     1     1     2    1
     2     1    22    1
     3     1    23    1
     4     1    24    1
     5     2     3    1
     6     2    25    1
     7     2    26    1
     8     3     4    1
     9     3    20    1
    10     4     5    1
    11     4    27    1
    12     4    28    1
    13     5     6    1
    14     5    29    1
    15     5    30    1
    16     6     7    1
    17     6    31    1
    18     6    32    1
    19     7     8    2
    20     8     9    1
    21     8    33    1
    22     9    10    2
    23     9    11    1
    24    11    12    1
    25    12    13    1
    26    13    14   am
    27    13    34    1
    28    14    15    2
    29    14    16   am
    30    16    17   am
    31    16    35    1
    32    17    18    2
    33    17    19    1
    34    19     7    1
    35    19    12    2
    36    20    21    1
    37    20    36    1
    38    20    37    1
    39    21     3    1
    40    21    38    1
    41    21    39    1
    42    11    40    1
@<TRIPOS>MOLECULE
*****
 40 42 0 0 0
SMALL
GASTEIGER

@<TRIPOS>ATOM
      1 C           1.8732    3.6843    2.6173 C.3     1  UNL11      -0.0648
      2 C           1.0472    2.7474    1.8217 C.3     1  UNL11      -0.0502
      3 C           1.8946    1.7580    0.9745 C.3     1  UNL11      -0.0294
      4 C           1.1005    0.8206    0.1565 C.3     1  UNL11      -0.0471
      5 C           0.1770    1.3002   -0.8845 C.3     1  UNL11      -0.0485
      6 C          -0.5914    0.2417   -1.6426 C.3     1  UNL11      -0.0258
      7 C          -1.4400    0.9582   -2.6458 C.2     1  UNL11      -0.0023
      8 C          -1.7441    0.3210   -3.8497 C.2     1  UNL11       0.0850
      9 C          -2.5754    0.9389   -4.7471 C.2     1  UNL11       0.4852
     10 O          -2.8347    0.3294   -5.8396 O.2     1  UNL11      -0.1908
     11 O          -3.0982    2.1134   -4.5152 O.2     1  UNL11      -0.4698
     12 C          -2.8454    2.7526   -3.4070 C.2     1  UNL11       0.5347
     13 N          -3.3703    3.9621   -3.1528 N.am    1  UNL11      -0.0043
     14 C          -3.1298    4.6531   -2.0277 C.2     1  UNL11       0.6699
     15 O          -3.6653    5.8008   -1.8532 O.2     1  UNL11      -0.1525
     16 N          -2.3285    4.1413   -1.0862 N.am    1  UNL11      -0.0479
     17 C          -1.7609    2.9114   -1.2813 C.2     1  UNL11       0.4376
     18 O          -1.0121    2.4480   -0.3973 O.2     1  UNL11      -0.2132
     19 C          -2.0000    2.1909   -2.4275 C.2     1  UNL11       0.2614
     20 C           3.3600    1.6511    1.2579 C.3     1  UNL11      -0.0469
     21 C           2.9216    2.5966    0.1927 C.3     1  UNL11      -0.0469
     22 H           2.4709    4.4177    2.0860 H       1  UNL11       0.0230
     23 H           2.4573    3.1007    3.3765 H       1  UNL11       0.0230
     24 H           1.1526    4.2732    3.2521 H       1  UNL11       0.0230
     25 H           0.5155    2.0763    2.5518 H       1  UNL11       0.0268
     26 H           0.3405    3.2542    1.1459 H       1  UNL11       0.0268
     27 H           0.4478    0.2413    0.8987 H       1  UNL11       0.0271
     28 H           1.7845   -0.0017   -0.2155 H       1  UNL11       0.0271
     29 H          -0.4784    2.1052   -0.4581 H       1  UNL11       0.0269
     30 H           0.8242    1.8964   -1.6181 H       1  UNL11       0.0269
     31 H          -1.3502   -0.2746   -0.9965 H       1  UNL11       0.0314
     32 H           0.1158   -0.4839   -2.0459 H       1  UNL11       0.0314
     33 H          -1.3082   -0.6430   -4.0280 H       1  UNL11       0.0750
     34 H          -3.9967    4.3713   -3.8806 H       1  UNL11       0.4630
     35 H          -2.0953    4.6179   -0.1907 H       1  UNL11       0.4575
     36 H           4.0148    0.8170    0.9824 H       1  UNL11       0.0271
     37 H           3.7469    2.1240    2.2126 H       1  UNL11       0.0271
     38 H           2.9830    3.6712    0.3641 H       1  UNL11       0.0271
     39 H           3.0368    2.3222   -0.8669 H       1  UNL11       0.0271
     40 H          -3.6627    2.5021   -5.1541 H       1  UNL11       0.5697
@<TRIPOS>BOND
     1     1     2    1
     2     1    22    1
     3     1    23    1
     4     1    24    1
     5     2     3    1
     6     2    25    1
     7     2    26    1
     8     3     4    1
     9     3    20    1
    10     4     5    1
    11     4    27    1
    12     4    28    1
    13     5     6    1
    14     5    29    1
    15     5    30    1
    16     6     7    1
    17     6    31    1
    18     6    32    1
    19     7     8    2
    20     8     9    1
    21     8    33    1
    22     9    10    2
    23     9    11    1
    24    11    12    1
    25    12    13    1
    26    13    14   am
    27    13    34    1
    28    14    15    2
    29    14    16   am
    30    16    17   am
    31    16    35    1
    32    17    18    2
    33    17    19    1
    34    19     7    1
    35    19    12    2
    36    20    21    1
    37    20    36    1
    38    20    37    1
    39    21     3    1
    40    21    38    1
    41    21    39    1
    42    11    40    1
@<TRIPOS>MOLECULE
*****
 40 42 0 0 0
SMALL
GASTEIGER

@<TRIPOS>ATOM
      1 C          -0.5182   -2.1066    2.0709 C.3     1  UNL11      -0.0648
      2 C          -0.0368   -1.3326    0.9036 C.3     1  UNL11      -0.0502
      3 C           0.6243    0.0168    1.2991 C.3     1  UNL11      -0.0294
      4 C           1.1005    0.8206    0.1565 C.3     1  UNL11      -0.0471
      5 C           0.1770    1.3002   -0.8845 C.3     1  UNL11      -0.0485
      6 C          -0.5914    0.2417   -1.6426 C.3     1  UNL11      -0.0258
      7 C          -1.4400    0.9582   -2.6458 C.2     1  UNL11      -0.0023
      8 C          -0.9924    2.1758   -3.1607 C.2     1  UNL11       0.0850
      9 C          -1.7274    2.8079   -4.1294 C.2     1  UNL11       0.4852
     10 O          -1.2907    3.9205   -4.5806 O.2     1  UNL11      -0.1908
     11 O          -2.8422    2.3083   -4.5925 O.2     1  UNL11      -0.4698
     12 C          -3.3057    1.1748   -4.1446 C.2     1  UNL11       0.5347
     13 N          -4.4515    0.6477   -4.6056 N.am    1  UNL11      -0.0043
     14 C          -4.9633   -0.5126   -4.1665 C.2     1  UNL11       0.6699
     15 O          -6.0602   -0.9544   -4.6523 O.2     1  UNL11      -0.1525
     16 N          -4.3257   -1.2094   -3.2186 N.am    1  UNL11      -0.0479
     17 C          -3.1513   -0.7292   -2.7055 C.2     1  UNL11       0.4376
     18 O          -2.5695   -1.3867   -1.8189 O.2     1  UNL11      -0.2132
     19 C          -2.6136    0.4565   -3.1473 C.2     1  UNL11       0.2614
     20 C           0.9638    0.2495    2.7378 C.3     1  UNL11      -0.0469
     21 C          -0.3533    0.7402    2.2426 C.3     1  UNL11      -0.0469
     22 H          -1.3420   -1.7014    2.6494 H       1  UNL11       0.0230
     23 H           0.3621   -2.4040    2.6991 H       1  UNL11       0.0230
     24 H          -0.8813   -3.0920    1.6632 H       1  UNL11       0.0230
     25 H           0.8118   -1.9156    0.4497 H       1  UNL11       0.0268
     26 H          -0.8257   -1.1207    0.1650 H       1  UNL11       0.0268
     27 H           1.8585    0.1586   -0.3909 H       1  UNL11       0.0271
     28 H           1.7756    1.6407    0.5491 H       1  UNL11       0.0271
     29 H          -0.4784    2.1052   -0.4581 H       1  UNL11       0.0269
     30 H           0.8242    1.8964   -1.6181 H       1  UNL11       0.0269
     31 H          -1.3502   -0.2746   -0.9965 H       1  UNL11       0.0314
     32 H           0.1158   -0.4839   -2.0459 H       1  UNL11       0.0314
     33 H          -0.0757    2.5752   -2.7718 H       1  UNL11       0.0750
     34 H          -4.9576    1.1830   -5.3450 H       1  UNL11       0.4630
     35 H          -4.6613   -2.1142   -2.8286 H       1  UNL11       0.4575
     36 H           1.6841    0.9789    3.1246 H       1  UNL11       0.0271
     37 H           0.9302   -0.6420    3.4369 H       1  UNL11       0.0271
     38 H          -1.2696    0.2404    2.5561 H       1  UNL11       0.0271
     39 H          -0.4969    1.8109    2.0324 H       1  UNL11       0.0271
     40 H          -3.3154    2.7711   -5.2558 H       1  UNL11       0.5697
@<TRIPOS>BOND
     1     1     2    1
     2     1    22    1
     3     1    23    1
     4     1    24    1
     5     2     3    1
     6     2    25    1
     7     2    26    1
     8     3     4    1
     9     3    20    1
    10     4     5    1
    11     4    27    1
    12     4    28    1
    13     5     6    1
    14     5    29    1
    15     5    30    1
    16     6     7    1
    17     6    31    1
    18     6    32    1
    19     7     8    2
    20     8     9    1
    21     8    33    1
    22     9    10    2
    23     9    11    1
    24    11    12    1
    25    12    13    1
    26    13    14   am
    27    13    34    1
    28    14    15    2
    29    14    16   am
    30    16    17   am
    31    16    35    1
    32    17    18    2
    33    17    19    1
    34    19     7    1
    35    19    12    2
    36    20    21    1
    37    20    36    1
    38    20    37    1
    39    21     3    1
    40    21    38    1
    41    21    39    1
    42    11    40    1
@<TRIPOS>MOLECULE
*****
 40 42 0 0 0
SMALL
GASTEIGER

@<TRIPOS>ATOM
      1 C           2.1278    3.5445   -0.8043 C.3     1  UNL11      -0.0648
      2 C           2.8452    2.6764    0.1575 C.3     1  UNL11      -0.0502
      3 C           1.8946    1.7580    0.9745 C.3     1  UNL11      -0.0294
      4 C           1.1005    0.8206    0.1565 C.3     1  UNL11      -0.0471
      5 C           0.1770    1.3002   -0.8845 C.3     1  UNL11      -0.0485
      6 C          -0.5914    0.2417   -1.6426 C.3     1  UNL11      -0.0258
      7 C          -1.4164   -0.4979   -0.6365 C.2     1  UNL11      -0.0023
      8 C          -0.7721   -1.1463    0.4182 C.2     1  UNL11       0.0850
      9 C          -1.5201   -1.7695    1.3828 C.2     1  UNL11       0.4852
     10 O          -0.9006   -2.3535    2.3353 O.2     1  UNL11      -0.1908
     11 O          -2.8261   -1.7795    1.3507 O.2     1  UNL11      -0.4698
     12 C          -3.4774   -1.1903    0.3869 C.2     1  UNL11       0.5347
     13 N          -4.8191   -1.1933    0.3350 N.am    1  UNL11      -0.0043
     14 C          -5.5247   -0.6035   -0.6424 C.2     1  UNL11       0.6699
     15 O          -6.8023   -0.6464   -0.6266 O.2     1  UNL11      -0.1525
     16 N          -4.8914    0.0309   -1.6358 N.am    1  UNL11      -0.0479
     17 C          -3.5235    0.0728   -1.6435 C.2     1  UNL11       0.4376
     18 O          -2.9456    0.6637   -2.5782 O.2     1  UNL11      -0.2132
     19 C          -2.7875   -0.5247   -0.6478 C.2     1  UNL11       0.2614
     20 C           1.6629    2.0763    2.4181 C.3     1  UNL11      -0.0469
     21 C           2.7397    1.1026    2.0814 C.3     1  UNL11      -0.0469
     22 H           1.4772    4.3179   -0.4093 H       1  UNL11       0.0230
     23 H           1.6335    2.9004   -1.5782 H       1  UNL11       0.0230
     24 H           2.9239    4.0808   -1.3940 H       1  UNL11       0.0230
     25 H           3.4546    1.9489   -0.4472 H       1  UNL11       0.0268
     26 H           3.4704    3.2374    0.8697 H       1  UNL11       0.0268
     27 H           0.4478    0.2413    0.8987 H       1  UNL11       0.0271
     28 H           1.7845   -0.0017   -0.2155 H       1  UNL11       0.0271
     29 H          -0.4784    2.1052   -0.4581 H       1  UNL11       0.0269
     30 H           0.8242    1.8964   -1.6181 H       1  UNL11       0.0269
     31 H           0.0814   -0.5585   -2.0511 H       1  UNL11       0.0314
     32 H          -1.1420    0.7207   -2.4531 H       1  UNL11       0.0314
     33 H           0.3006   -1.1309    0.4327 H       1  UNL11       0.0750
     34 H          -5.3237   -1.6857    1.1048 H       1  UNL11       0.4630
     35 H          -5.3700    0.5093   -2.4267 H       1  UNL11       0.4575
     36 H           0.8202    1.7361    3.0303 H       1  UNL11       0.0271
     37 H           2.0087    3.0875    2.7958 H       1  UNL11       0.0271
     38 H           3.7845    1.3879    2.2026 H       1  UNL11       0.0271
     39 H           2.5687    0.0244    2.2210 H       1  UNL11       0.0271
     40 H          -3.3014   -2.2161    2.0299 H       1  UNL11       0.5697
@<TRIPOS>BOND
     1     1     2    1
     2     1    22    1
     3     1    23    1
     4     1    24    1
     5     2     3    1
     6     2    25    1
     7     2    26    1
     8     3     4    1
     9     3    20    1
    10     4     5    1
    11     4    27    1
    12     4    28    1
    13     5     6    1
    14     5    29    1
    15     5    30    1
    16     6     7    1
    17     6    31    1
    18     6    32    1
    19     7     8    2
    20     8     9    1
    21     8    33    1
    22     9    10    2
    23     9    11    1
    24    11    12    1
    25    12    13    1
    26    13    14   am
    27    13    34    1
    28    14    15    2
    29    14    16   am
    30    16    17   am
    31    16    35    1
    32    17    18    2
    33    17    19    1
    34    19     7    1
    35    19    12    2
    36    20    21    1
    37    20    36    1
    38    20    37    1
    39    21     3    1
    40    21    38    1
    41    21    39    1
    42    11    40    1
@<TRIPOS>MOLECULE
*****
 40 42 0 0 0
SMALL
GASTEIGER

@<TRIPOS>ATOM
      1 C           2.1278    3.5445   -0.8043 C.3     1  UNL11      -0.0648
      2 C           2.8452    2.6764    0.1575 C.3     1  UNL11      -0.0502
      3 C           1.8946    1.7580    0.9745 C.3     1  UNL11      -0.0294
      4 C           1.1005    0.8206    0.1565 C.3     1  UNL11      -0.0471
      5 C           0.1770    1.3002   -0.8845 C.3     1  UNL11      -0.0485
      6 C          -0.5914    0.2417   -1.6426 C.3     1  UNL11      -0.0258
      7 C          -1.4164   -0.4979   -0.6365 C.2     1  UNL11      -0.0023
      8 C          -2.3700    0.2050    0.1013 C.2     1  UNL11       0.0850
      9 C          -3.1778   -0.4730    0.9765 C.2     1  UNL11       0.4852
     10 O          -4.0409    0.1989    1.6366 O.2     1  UNL11      -0.1908
     11 O          -3.0868   -1.7650    1.1476 O.2     1  UNL11      -0.4698
     12 C          -2.2120   -2.4689    0.4846 C.2     1  UNL11       0.5347
     13 N          -2.1011   -3.7968    0.6498 N.am    1  UNL11      -0.0043
     14 C          -1.2107   -4.5543   -0.0093 C.2     1  UNL11       0.6699
     15 O          -1.1623   -5.8147    0.1987 O.2     1  UNL11      -0.1525
     16 N          -0.3714   -3.9907   -0.8860 N.am    1  UNL11      -0.0479
     17 C          -0.4315   -2.6409   -1.1031 C.2     1  UNL11       0.4376
     18 O           0.3599   -2.1276   -1.9198 O.2     1  UNL11      -0.2132
     19 C          -1.3401   -1.8526   -0.4371 C.2     1  UNL11       0.2614
     20 C           1.6629    2.0763    2.4181 C.3     1  UNL11      -0.0469
     21 C           2.7397    1.1026    2.0814 C.3     1  UNL11      -0.0469
     22 H           1.4772    4.3179   -0.4093 H       1  UNL11       0.0230
     23 H           1.6335    2.9004   -1.5782 H       1  UNL11       0.0230
     24 H           2.9239    4.0808   -1.3940 H       1  UNL11       0.0230
     25 H           3.4546    1.9489   -0.4472 H       1  UNL11       0.0268
     26 H           3.4704    3.2374    0.8697 H       1  UNL11       0.0268
     27 H           0.4478    0.2413    0.8987 H       1  UNL11       0.0271
     28 H           1.7845   -0.0017   -0.2155 H       1  UNL11       0.0271
     29 H          -0.4784    2.1052   -0.4581 H       1  UNL11       0.0269
     30 H           0.8242    1.8964   -1.6181 H       1  UNL11       0.0269
     31 H           0.0814   -0.5585   -2.0511 H       1  UNL11       0.0314
     32 H          -1.1420    0.7207   -2.4531 H       1  UNL11       0.0314
     33 H          -2.4344    1.2655   -0.0483 H       1  UNL11       0.0750
     34 H          -2.7506   -4.2471    1.3317 H       1  UNL11       0.4630
     35 H           0.3449   -4.5123   -1.4322 H       1  UNL11       0.4575
     36 H           0.8202    1.7361    3.0303 H       1  UNL11       0.0271
     37 H           2.0087    3.0875    2.7958 H       1  UNL11       0.0271
     38 H           3.7845    1.3879    2.2026 H       1  UNL11       0.0271
     39 H           2.5687    0.0244    2.2210 H       1  UNL11       0.0271
     40 H          -3.6582   -2.1919    1.7552 H       1  UNL11       0.5697
@<TRIPOS>BOND
     1     1     2    1
     2     1    22    1
     3     1    23    1
     4     1    24    1
     5     2     3    1
     6     2    25    1
     7     2    26    1
     8     3     4    1
     9     3    20    1
    10     4     5    1
    11     4    27    1
    12     4    28    1
    13     5     6    1
    14     5    29    1
    15     5    30    1
    16     6     7    1
    17     6    31    1
    18     6    32    1
    19     7     8    2
    20     8     9    1
    21     8    33    1
    22     9    10    2
    23     9    11    1
    24    11    12    1
    25    12    13    1
    26    13    14   am
    27    13    34    1
    28    14    15    2
    29    14    16   am
    30    16    17   am
    31    16    35    1
    32    17    18    2
    33    17    19    1
    34    19     7    1
    35    19    12    2
    36    20    21    1
    37    20    36    1
    38    20    37    1
    39    21     3    1
    40    21    38    1
    41    21    39    1
    42    11    40    1
@<TRIPOS>MOLECULE
*****
 40 42 0 0 0
SMALL
GASTEIGER

@<TRIPOS>ATOM
      1 C           3.8330    1.9202   -0.6460 C.3     1  UNL11      -0.0648
      2 C           2.8452    2.6764    0.1575 C.3     1  UNL11      -0.0502
      3 C           1.8946    1.7580    0.9745 C.3     1  UNL11      -0.0294
      4 C           1.1005    0.8206    0.1565 C.3     1  UNL11      -0.0471
      5 C           0.1770    1.3002   -0.8845 C.3     1  UNL11      -0.0485
      6 C          -0.5914    0.2417   -1.6426 C.3     1  UNL11      -0.0258
      7 C          -1.4164   -0.4979   -0.6365 C.2     1  UNL11      -0.0023
      8 C          -1.8547    0.1773    0.5036 C.2     1  UNL11       0.0850
      9 C          -2.6668   -0.4692    1.3984 C.2     1  UNL11       0.4852
     10 O          -3.0513    0.1764    2.4316 O.2     1  UNL11      -0.1908
     11 O          -3.0489   -1.7060    1.2220 O.2     1  UNL11      -0.4698
     12 C          -2.6668   -2.3827    0.1749 C.2     1  UNL11       0.5347
     13 N          -3.0461   -3.6558   -0.0213 N.am    1  UNL11      -0.0043
     14 C          -2.6698   -4.3863   -1.0824 C.2     1  UNL11       0.6699
     15 O          -3.0707   -5.5942   -1.2040 O.2     1  UNL11      -0.1525
     16 N          -1.8738   -3.8511   -2.0153 N.am    1  UNL11      -0.0479
     17 C          -1.4509   -2.5569   -1.8772 C.2     1  UNL11       0.4376
     18 O          -0.7052   -2.0716   -2.7521 O.2     1  UNL11      -0.2132
     19 C          -1.8302   -1.7955   -0.7970 C.2     1  UNL11       0.2614
     20 C           1.6629    2.0763    2.4181 C.3     1  UNL11      -0.0469
     21 C           2.7397    1.1026    2.0814 C.3     1  UNL11      -0.0469
     22 H           3.4676    1.3148   -1.4691 H       1  UNL11       0.0230
     23 H           4.5161    1.3624    0.0470 H       1  UNL11       0.0230
     24 H           4.5149    2.6897   -1.1065 H       1  UNL11       0.0230
     25 H           3.4205    3.2284    0.9515 H       1  UNL11       0.0268
     26 H           2.2243    3.3590   -0.4436 H       1  UNL11       0.0268
     27 H           0.4478    0.2413    0.8987 H       1  UNL11       0.0271
     28 H           1.7845   -0.0017   -0.2155 H       1  UNL11       0.0271
     29 H          -0.4784    2.1052   -0.4581 H       1  UNL11       0.0269
     30 H           0.8242    1.8964   -1.6181 H       1  UNL11       0.0269
     31 H           0.0814   -0.5585   -2.0511 H       1  UNL11       0.0314
     32 H          -1.1420    0.7207   -2.4531 H       1  UNL11       0.0314
     33 H          -1.5336    1.1924    0.6366 H       1  UNL11       0.0750
     34 H          -3.6669   -4.0837    0.7005 H       1  UNL11       0.4630
     35 H          -1.5406   -4.3552   -2.8628 H       1  UNL11       0.4575
     36 H           0.8202    1.7361    3.0303 H       1  UNL11       0.0271
     37 H           2.0087    3.0875    2.7958 H       1  UNL11       0.0271
     38 H           3.7845    1.3879    2.2026 H       1  UNL11       0.0271
     39 H           2.5687    0.0244    2.2210 H       1  UNL11       0.0271
     40 H          -3.6054   -2.1125    1.8569 H       1  UNL11       0.5697
@<TRIPOS>BOND
     1     1     2    1
     2     1    22    1
     3     1    23    1
     4     1    24    1
     5     2     3    1
     6     2    25    1
     7     2    26    1
     8     3     4    1
     9     3    20    1
    10     4     5    1
    11     4    27    1
    12     4    28    1
    13     5     6    1
    14     5    29    1
    15     5    30    1
    16     6     7    1
    17     6    31    1
    18     6    32    1
    19     7     8    2
    20     8     9    1
    21     8    33    1
    22     9    10    2
    23     9    11    1
    24    11    12    1
    25    12    13    1
    26    13    14   am
    27    13    34    1
    28    14    15    2
    29    14    16   am
    30    16    17   am
    31    16    35    1
    32    17    18    2
    33    17    19    1
    34    19     7    1
    35    19    12    2
    36    20    21    1
    37    20    36    1
    38    20    37    1
    39    21     3    1
    40    21    38    1
    41    21    39    1
    42    11    40    1
@<TRIPOS>MOLECULE
*****
 40 42 0 0 0
SMALL
GASTEIGER

@<TRIPOS>ATOM
      1 C           3.8352    0.1854    1.3879 C.3     1  UNL11      -0.0648
      2 C           2.8275    1.0735    2.0116 C.3     1  UNL11      -0.0502
      3 C           1.8946    1.7580    0.9745 C.3     1  UNL11      -0.0294
      4 C           1.1005    0.8206    0.1565 C.3     1  UNL11      -0.0471
      5 C           0.1770    1.3002   -0.8845 C.3     1  UNL11      -0.0485
      6 C          -0.5914    0.2417   -1.6426 C.3     1  UNL11      -0.0258
      7 C          -1.4164   -0.4979   -0.6365 C.2     1  UNL11      -0.0023
      8 C          -0.8737   -1.6245   -0.0167 C.2     1  UNL11       0.0850
      9 C          -1.5928   -2.2702    0.9550 C.2     1  UNL11       0.4852
     10 O          -1.0682   -3.2980    1.5035 O.2     1  UNL11      -0.1908
     11 O          -2.7788   -1.8666    1.3255 O.2     1  UNL11      -0.4698
     12 C          -3.3323   -0.8208    0.7775 C.2     1  UNL11       0.5347
     13 N          -4.5518   -0.3933    1.1424 N.am    1  UNL11      -0.0043
     14 C          -5.1566    0.6743    0.5988 C.2     1  UNL11       0.6699
     15 O          -6.3201    1.0240    0.9969 O.2     1  UNL11      -0.1525
     16 N          -4.5422    1.3749   -0.3614 N.am    1  UNL11      -0.0479
     17 C          -3.2963    0.9938   -0.7801 C.2     1  UNL11       0.4376
     18 O          -2.7366    1.6532   -1.6795 O.2     1  UNL11      -0.2132
     19 C          -2.6632   -0.0961   -0.2308 C.2     1  UNL11       0.2614
     20 C           2.0773    3.2188    0.7065 C.3     1  UNL11      -0.0469
     21 C           1.0747    2.8169    1.7331 C.3     1  UNL11      -0.0469
     22 H           4.6050    0.6381    0.7715 H       1  UNL11       0.0230
     23 H           3.3079   -0.6676    0.8853 H       1  UNL11       0.0230
     24 H           4.3757   -0.3183    2.2382 H       1  UNL11       0.0230
     25 H           2.1275    0.4159    2.5979 H       1  UNL11       0.0268
     26 H           3.2699    1.8607    2.6420 H       1  UNL11       0.0268
     27 H           0.4478    0.2413    0.8987 H       1  UNL11       0.0271
     28 H           1.7845   -0.0017   -0.2155 H       1  UNL11       0.0271
     29 H          -0.4784    2.1052   -0.4581 H       1  UNL11       0.0269
     30 H           0.8242    1.8964   -1.6181 H       1  UNL11       0.0269
     31 H           0.0814   -0.5585   -2.0511 H       1  UNL11       0.0314
     32 H          -1.1420    0.7207   -2.4531 H       1  UNL11       0.0314
     33 H           0.1008   -1.9457   -0.3302 H       1  UNL11       0.0750
     34 H          -5.0407   -0.9326    1.8905 H       1  UNL11       0.4630
     35 H          -4.9481    2.2113   -0.8295 H       1  UNL11       0.4575
     36 H           1.7322    3.7640   -0.1791 H       1  UNL11       0.0271
     37 H           3.0193    3.7118    1.0992 H       1  UNL11       0.0271
     38 H           1.2766    3.0015    2.7881 H       1  UNL11       0.0271
     39 H           0.0014    2.8367    1.4902 H       1  UNL11       0.0271
     40 H          -3.2381   -2.3351    1.9944 H       1  UNL11       0.5697
@<TRIPOS>BOND
     1     1     2    1
     2     1    22    1
     3     1    23    1
     4     1    24    1
     5     2     3    1
     6     2    25    1
     7     2    26    1
     8     3     4    1
     9     3    20    1
    10     4     5    1
    11     4    27    1
    12     4    28    1
    13     5     6    1
    14     5    29    1
    15     5    30    1
    16     6     7    1
    17     6    31    1
    18     6    32    1
    19     7     8    2
    20     8     9    1
    21     8    33    1
    22     9    10    2
    23     9    11    1
    24    11    12    1
    25    12    13    1
    26    13    14   am
    27    13    34    1
    28    14    15    2
    29    14    16   am
    30    16    17   am
    31    16    35    1
    32    17    18    2
    33    17    19    1
    34    19     7    1
    35    19    12    2
    36    20    21    1
    37    20    36    1
    38    20    37    1
    39    21     3    1
    40    21    38    1
    41    21    39    1
    42    11    40    1
@<TRIPOS>MOLECULE
*****
 40 42 0 0 0
SMALL
GASTEIGER

@<TRIPOS>ATOM
      1 C           0.9234   -2.2243    0.0258 C.3     1  UNL11      -0.0648
      2 C           1.8269   -1.4152   -0.8242 C.3     1  UNL11      -0.0502
      3 C           2.2343   -0.0670   -0.1677 C.3     1  UNL11      -0.0294
      4 C           1.1005    0.8206    0.1565 C.3     1  UNL11      -0.0471
      5 C           0.1770    1.3002   -0.8845 C.3     1  UNL11      -0.0485
      6 C          -0.5914    0.2417   -1.6426 C.3     1  UNL11      -0.0258
      7 C          -1.4400    0.9582   -2.6458 C.2     1  UNL11      -0.0023
      8 C          -1.7441    0.3210   -3.8497 C.2     1  UNL11       0.0850
      9 C          -2.5754    0.9389   -4.7471 C.2     1  UNL11       0.4852
     10 O          -2.8347    0.3294   -5.8396 O.2     1  UNL11      -0.1908
     11 O          -3.0982    2.1134   -4.5152 O.2     1  UNL11      -0.4698
     12 C          -2.8454    2.7526   -3.4070 C.2     1  UNL11       0.5347
     13 N          -3.3703    3.9621   -3.1528 N.am    1  UNL11      -0.0043
     14 C          -3.1298    4.6531   -2.0277 C.2     1  UNL11       0.6699
     15 O          -3.6653    5.8008   -1.8532 O.2     1  UNL11      -0.1525
     16 N          -2.3285    4.1413   -1.0862 N.am    1  UNL11      -0.0479
     17 C          -1.7609    2.9114   -1.2813 C.2     1  UNL11       0.4376
     18 O          -1.0121    2.4480   -0.3973 O.2     1  UNL11      -0.2132
     19 C          -2.0000    2.1909   -2.4275 C.2     1  UNL11       0.2614
     20 C           3.6789    0.3229   -0.1782 C.3     1  UNL11      -0.0469
     21 C           3.1595   -0.4016    1.0160 C.3     1  UNL11      -0.0469
     22 H          -0.0749   -1.8448    0.2179 H       1  UNL11       0.0230
     23 H           1.4714   -2.5250    0.9571 H       1  UNL11       0.0230
     24 H           0.7840   -3.2043   -0.5121 H       1  UNL11       0.0230
     25 H           2.8003   -1.9751   -0.8956 H       1  UNL11       0.0268
     26 H           1.4097   -1.1959   -1.8195 H       1  UNL11       0.0268
     27 H           1.5677    1.7646    0.6070 H       1  UNL11       0.0271
     28 H           0.5583    0.3986    1.0567 H       1  UNL11       0.0271
     29 H          -0.4784    2.1052   -0.4581 H       1  UNL11       0.0269
     30 H           0.8242    1.8964   -1.6181 H       1  UNL11       0.0269
     31 H          -1.3502   -0.2746   -0.9965 H       1  UNL11       0.0314
     32 H           0.1158   -0.4839   -2.0459 H       1  UNL11       0.0314
     33 H          -1.3082   -0.6430   -4.0280 H       1  UNL11       0.0750
     34 H          -3.9967    4.3713   -3.8806 H       1  UNL11       0.4630
     35 H          -2.0953    4.6179   -0.1907 H       1  UNL11       0.4575
     36 H           4.0789    1.3344   -0.0456 H       1  UNL11       0.0271
     37 H           4.3775   -0.2648   -0.8500 H       1  UNL11       0.0271
     38 H           3.4561   -1.4352    1.1933 H       1  UNL11       0.0271
     39 H           2.9464    0.1506    1.9440 H       1  UNL11       0.0271
     40 H          -3.6627    2.5021   -5.1541 H       1  UNL11       0.5697
@<TRIPOS>BOND
     1     1     2    1
     2     1    22    1
     3     1    23    1
     4     1    24    1
     5     2     3    1
     6     2    25    1
     7     2    26    1
     8     3     4    1
     9     3    20    1
    10     4     5    1
    11     4    27    1
    12     4    28    1
    13     5     6    1
    14     5    29    1
    15     5    30    1
    16     6     7    1
    17     6    31    1
    18     6    32    1
    19     7     8    2
    20     8     9    1
    21     8    33    1
    22     9    10    2
    23     9    11    1
    24    11    12    1
    25    12    13    1
    26    13    14   am
    27    13    34    1
    28    14    15    2
    29    14    16   am
    30    16    17   am
    31    16    35    1
    32    17    18    2
    33    17    19    1
    34    19     7    1
    35    19    12    2
    36    20    21    1
    37    20    36    1
    38    20    37    1
    39    21     3    1
    40    21    38    1
    41    21    39    1
    42    11    40    1
@<TRIPOS>MOLECULE
*****
 40 42 0 0 0
SMALL
GASTEIGER

@<TRIPOS>ATOM
      1 C           1.8732    3.6843    2.6173 C.3     1  UNL11      -0.0648
      2 C           1.0472    2.7474    1.8217 C.3     1  UNL11      -0.0502
      3 C           1.8946    1.7580    0.9745 C.3     1  UNL11      -0.0294
      4 C           1.1005    0.8206    0.1565 C.3     1  UNL11      -0.0471
      5 C           0.1770    1.3002   -0.8845 C.3     1  UNL11      -0.0485
      6 C          -0.5914    0.2417   -1.6426 C.3     1  UNL11      -0.0258
      7 C          -1.4164   -0.4979   -0.6365 C.2     1  UNL11      -0.0023
      8 C          -2.8051   -0.5036   -0.7763 C.2     1  UNL11       0.0850
      9 C          -3.5667   -1.2329    0.0990 C.2     1  UNL11       0.4852
     10 O          -4.8348   -1.2179   -0.0559 O.2     1  UNL11      -0.1908
     11 O          -3.0359   -1.9290    1.0687 O.2     1  UNL11      -0.4698
     12 C          -1.7442   -1.9568    1.2446 C.2     1  UNL11       0.5347
     13 N          -1.1808   -2.6633    2.2379 N.am    1  UNL11      -0.0043
     14 C           0.1427   -2.7124    2.4546 C.2     1  UNL11       0.6699
     15 O           0.6090   -3.4075    3.4209 O.2     1  UNL11      -0.1525
     16 N           0.9770   -2.0333    1.6587 N.am    1  UNL11      -0.0479
     17 C           0.4687   -1.2931    0.6260 C.2     1  UNL11       0.4376
     18 O           1.2575   -0.6610   -0.1056 O.2     1  UNL11      -0.2132
     19 C          -0.8846   -1.2352    0.3903 C.2     1  UNL11       0.2614
     20 C           3.3600    1.6511    1.2579 C.3     1  UNL11      -0.0469
     21 C           2.9216    2.5966    0.1927 C.3     1  UNL11      -0.0469
     22 H           2.4709    4.4177    2.0860 H       1  UNL11       0.0230
     23 H           2.4573    3.1007    3.3765 H       1  UNL11       0.0230
     24 H           1.1526    4.2732    3.2521 H       1  UNL11       0.0230
     25 H           0.5155    2.0763    2.5518 H       1  UNL11       0.0268
     26 H           0.3405    3.2542    1.1459 H       1  UNL11       0.0268
     27 H           0.4478    0.2413    0.8987 H       1  UNL11       0.0271
     28 H           1.7845   -0.0017   -0.2155 H       1  UNL11       0.0271
     29 H          -0.4784    2.1052   -0.4581 H       1  UNL11       0.0269
     30 H           0.8242    1.8964   -1.6181 H       1  UNL11       0.0269
     31 H           0.0814   -0.5585   -2.0511 H       1  UNL11       0.0314
     32 H          -1.1420    0.7207   -2.4531 H       1  UNL11       0.0314
     33 H          -3.2284    0.0723   -1.5765 H       1  UNL11       0.0750
     34 H          -1.8222   -3.1967    2.8653 H       1  UNL11       0.4630
     35 H           2.0123   -2.0226    1.7654 H       1  UNL11       0.4575
     36 H           4.0148    0.8170    0.9824 H       1  UNL11       0.0271
     37 H           3.7469    2.1240    2.2126 H       1  UNL11       0.0271
     38 H           2.9830    3.6712    0.3641 H       1  UNL11       0.0271
     39 H           3.0368    2.3222   -0.8669 H       1  UNL11       0.0271
     40 H          -3.5912   -2.4153    1.6459 H       1  UNL11       0.5697
@<TRIPOS>BOND
     1     1     2    1
     2     1    22    1
     3     1    23    1
     4     1    24    1
     5     2     3    1
     6     2    25    1
     7     2    26    1
     8     3     4    1
     9     3    20    1
    10     4     5    1
    11     4    27    1
    12     4    28    1
    13     5     6    1
    14     5    29    1
    15     5    30    1
    16     6     7    1
    17     6    31    1
    18     6    32    1
    19     7     8    2
    20     8     9    1
    21     8    33    1
    22     9    10    2
    23     9    11    1
    24    11    12    1
    25    12    13    1
    26    13    14   am
    27    13    34    1
    28    14    15    2
    29    14    16   am
    30    16    17   am
    31    16    35    1
    32    17    18    2
    33    17    19    1
    34    19     7    1
    35    19    12    2
    36    20    21    1
    37    20    36    1
    38    20    37    1
    39    21     3    1
    40    21    38    1
    41    21    39    1
    42    11    40    1
@<TRIPOS>MOLECULE
*****
 40 42 0 0 0
SMALL
GASTEIGER

@<TRIPOS>ATOM
      1 C           0.1635    2.0669    2.7960 C.3     1  UNL11      -0.0648
      2 C           1.0472    2.7474    1.8217 C.3     1  UNL11      -0.0502
      3 C           1.8946    1.7580    0.9745 C.3     1  UNL11      -0.0294
      4 C           1.1005    0.8206    0.1565 C.3     1  UNL11      -0.0471
      5 C           0.1770    1.3002   -0.8845 C.3     1  UNL11      -0.0485
      6 C          -0.5914    0.2417   -1.6426 C.3     1  UNL11      -0.0258
      7 C          -1.4164   -0.4979   -0.6365 C.2     1  UNL11      -0.0023
      8 C          -0.9474   -0.6032    0.6738 C.2     1  UNL11       0.0850
      9 C          -1.7248   -1.2191    1.6196 C.2     1  UNL11       0.4852
     10 O          -1.2674   -1.2990    2.8098 O.2     1  UNL11      -0.1908
     11 O          -2.8994   -1.7162    1.3371 O.2     1  UNL11      -0.4698
     12 C          -3.3838   -1.6461    0.1285 C.2     1  UNL11       0.5347
     13 N          -4.5872   -2.1547   -0.1816 N.am    1  UNL11      -0.0043
     14 C          -5.1173   -2.1071   -1.4136 C.2     1  UNL11       0.6699
     15 O          -6.2703   -2.6124   -1.6357 O.2     1  UNL11      -0.1525
     16 N          -4.4389   -1.5299   -2.4122 N.am    1  UNL11      -0.0479
     17 C          -3.2059   -0.9903   -2.1646 C.2     1  UNL11       0.4376
     18 O          -2.5822   -0.4592   -3.1058 O.2     1  UNL11      -0.2132
     19 C          -2.6513   -1.0294   -0.9072 C.2     1  UNL11       0.2614
     20 C           3.3600    1.6511    1.2579 C.3     1  UNL11      -0.0469
     21 C           2.9216    2.5966    0.1927 C.3     1  UNL11      -0.0469
     22 H           0.6255    1.5270    3.6160 H       1  UNL11       0.0230
     23 H          -0.5967    1.4606    2.2370 H       1  UNL11       0.0230
     24 H          -0.4595    2.8768    3.2704 H       1  UNL11       0.0230
     25 H           0.3803    3.2382    1.0597 H       1  UNL11       0.0268
     26 H           1.7346    3.4711    2.2870 H       1  UNL11       0.0268
     27 H           0.4478    0.2413    0.8987 H       1  UNL11       0.0271
     28 H           1.7845   -0.0017   -0.2155 H       1  UNL11       0.0271
     29 H          -0.4784    2.1052   -0.4581 H       1  UNL11       0.0269
     30 H           0.8242    1.8964   -1.6181 H       1  UNL11       0.0269
     31 H           0.0814   -0.5585   -2.0511 H       1  UNL11       0.0314
     32 H          -1.1420    0.7207   -2.4531 H       1  UNL11       0.0314
     33 H           0.0188   -0.1910    0.8926 H       1  UNL11       0.0750
     34 H          -5.1252   -2.6078    0.5897 H       1  UNL11       0.4630
     35 H          -4.7842   -1.4563   -3.3914 H       1  UNL11       0.4575
     36 H           4.0148    0.8170    0.9824 H       1  UNL11       0.0271
     37 H           3.7469    2.1240    2.2126 H       1  UNL11       0.0271
     38 H           2.9830    3.6712    0.3641 H       1  UNL11       0.0271
     39 H           3.0368    2.3222   -0.8669 H       1  UNL11       0.0271
     40 H          -3.4008   -2.1291    2.0125 H       1  UNL11       0.5697
@<TRIPOS>BOND
     1     1     2    1
     2     1    22    1
     3     1    23    1
     4     1    24    1
     5     2     3    1
     6     2    25    1
     7     2    26    1
     8     3     4    1
     9     3    20    1
    10     4     5    1
    11     4    27    1
    12     4    28    1
    13     5     6    1
    14     5    29    1
    15     5    30    1
    16     6     7    1
    17     6    31    1
    18     6    32    1
    19     7     8    2
    20     8     9    1
    21     8    33    1
    22     9    10    2
    23     9    11    1
    24    11    12    1
    25    12    13    1
    26    13    14   am
    27    13    34    1
    28    14    15    2
    29    14    16   am
    30    16    17   am
    31    16    35    1
    32    17    18    2
    33    17    19    1
    34    19     7    1
    35    19    12    2
    36    20    21    1
    37    20    36    1
    38    20    37    1
    39    21     3    1
    40    21    38    1
    41    21    39    1
    42    11    40    1
@<TRIPOS>MOLECULE
*****
 40 42 0 0 0
SMALL
GASTEIGER

@<TRIPOS>ATOM
      1 C           2.1278    3.5445   -0.8043 C.3     1  UNL11      -0.0648
      2 C           2.8452    2.6764    0.1575 C.3     1  UNL11      -0.0502
      3 C           1.8946    1.7580    0.9745 C.3     1  UNL11      -0.0294
      4 C           1.1005    0.8206    0.1565 C.3     1  UNL11      -0.0471
      5 C           0.1770    1.3002   -0.8845 C.3     1  UNL11      -0.0485
      6 C          -0.5914    0.2417   -1.6426 C.3     1  UNL11      -0.0258
      7 C          -1.4400    0.9582   -2.6458 C.2     1  UNL11      -0.0023
      8 C          -2.8263    0.8082   -2.5862 C.2     1  UNL11       0.0850
      9 C          -3.6176    1.5120   -3.4561 C.2     1  UNL11       0.4852
     10 O          -4.8827    1.3531   -3.3758 O.2     1  UNL11      -0.1908
     11 O          -3.1173    2.3255   -4.3475 O.2     1  UNL11      -0.4698
     12 C          -1.8290    2.5010   -4.4466 C.2     1  UNL11       0.5347
     13 N          -1.2963    3.3298   -5.3589 N.am    1  UNL11      -0.0043
     14 C           0.0233    3.5327   -5.4954 C.2     1  UNL11       0.6699
     15 O           0.4595    4.3381   -6.3873 O.2     1  UNL11      -0.1525
     16 N           0.8852    2.8917   -4.6974 N.am    1  UNL11      -0.0479
     17 C           0.4088    2.0325   -3.7446 C.2     1  UNL11       0.4376
     18 O           1.2237    1.4378   -3.0102 O.2     1  UNL11      -0.2132
     19 C          -0.9403    1.8165   -3.5914 C.2     1  UNL11       0.2614
     20 C           1.6629    2.0763    2.4181 C.3     1  UNL11      -0.0469
     21 C           2.7397    1.1026    2.0814 C.3     1  UNL11      -0.0469
     22 H           1.4772    4.3179   -0.4093 H       1  UNL11       0.0230
     23 H           1.6335    2.9004   -1.5782 H       1  UNL11       0.0230
     24 H           2.9239    4.0808   -1.3940 H       1  UNL11       0.0230
     25 H           3.4546    1.9489   -0.4472 H       1  UNL11       0.0268
     26 H           3.4704    3.2374    0.8697 H       1  UNL11       0.0268
     27 H           0.4478    0.2413    0.8987 H       1  UNL11       0.0271
     28 H           1.7845   -0.0017   -0.2155 H       1  UNL11       0.0271
     29 H          -0.4784    2.1052   -0.4581 H       1  UNL11       0.0269
     30 H           0.8242    1.8964   -1.6181 H       1  UNL11       0.0269
     31 H          -1.3502   -0.2746   -0.9965 H       1  UNL11       0.0314
     32 H           0.1158   -0.4839   -2.0459 H       1  UNL11       0.0314
     33 H          -3.2244    0.1370   -1.8498 H       1  UNL11       0.0750
     34 H          -1.9593    3.8349   -5.9873 H       1  UNL11       0.4630
     35 H           1.9196    2.9973   -4.7447 H       1  UNL11       0.4575
     36 H           0.8202    1.7361    3.0303 H       1  UNL11       0.0271
     37 H           2.0087    3.0875    2.7958 H       1  UNL11       0.0271
     38 H           3.7845    1.3879    2.2026 H       1  UNL11       0.0271
     39 H           2.5687    0.0244    2.2210 H       1  UNL11       0.0271
     40 H          -3.6923    2.7894   -4.9238 H       1  UNL11       0.5697
@<TRIPOS>BOND
     1     1     2    1
     2     1    22    1
     3     1    23    1
     4     1    24    1
     5     2     3    1
     6     2    25    1
     7     2    26    1
     8     3     4    1
     9     3    20    1
    10     4     5    1
    11     4    27    1
    12     4    28    1
    13     5     6    1
    14     5    29    1
    15     5    30    1
    16     6     7    1
    17     6    31    1
    18     6    32    1
    19     7     8    2
    20     8     9    1
    21     8    33    1
    22     9    10    2
    23     9    11    1
    24    11    12    1
    25    12    13    1
    26    13    14   am
    27    13    34    1
    28    14    15    2
    29    14    16   am
    30    16    17   am
    31    16    35    1
    32    17    18    2
    33    17    19    1
    34    19     7    1
    35    19    12    2
    36    20    21    1
    37    20    36    1
    38    20    37    1
    39    21     3    1
    40    21    38    1
    41    21    39    1
    42    11    40    1
@<TRIPOS>MOLECULE
*****
 40 42 0 0 0
SMALL
GASTEIGER

@<TRIPOS>ATOM
      1 C           2.3207   -1.2331    2.0779 C.3     1  UNL11      -0.0648
      2 C           3.0924   -0.4862    1.0581 C.3     1  UNL11      -0.0502
      3 C           2.2343   -0.0670   -0.1677 C.3     1  UNL11      -0.0294
      4 C           1.1005    0.8206    0.1565 C.3     1  UNL11      -0.0471
      5 C           0.1770    1.3002   -0.8845 C.3     1  UNL11      -0.0485
      6 C          -0.5914    0.2417   -1.6426 C.3     1  UNL11      -0.0258
      7 C          -1.4164   -0.4979   -0.6365 C.2     1  UNL11      -0.0023
      8 C          -0.9474   -0.6032    0.6738 C.2     1  UNL11       0.0850
      9 C          -1.7248   -1.2191    1.6196 C.2     1  UNL11       0.4852
     10 O          -1.2674   -1.2990    2.8098 O.2     1  UNL11      -0.1908
     11 O          -2.8994   -1.7162    1.3371 O.2     1  UNL11      -0.4698
     12 C          -3.3838   -1.6461    0.1285 C.2     1  UNL11       0.5347
     13 N          -4.5872   -2.1547   -0.1816 N.am    1  UNL11      -0.0043
     14 C          -5.1173   -2.1071   -1.4136 C.2     1  UNL11       0.6699
     15 O          -6.2703   -2.6124   -1.6357 O.2     1  UNL11      -0.1525
     16 N          -4.4389   -1.5299   -2.4122 N.am    1  UNL11      -0.0479
     17 C          -3.2059   -0.9903   -2.1646 C.2     1  UNL11       0.4376
     18 O          -2.5822   -0.4592   -3.1058 O.2     1  UNL11      -0.2132
     19 C          -2.6513   -1.0294   -0.9072 C.2     1  UNL11       0.2614
     20 C           2.4436   -0.7857   -1.4634 C.3     1  UNL11      -0.0469
     21 C           3.2030    0.4758   -1.2336 C.3     1  UNL11      -0.0469
     22 H           1.9446   -2.2167    1.8163 H       1  UNL11       0.0230
     23 H           1.5358   -0.5572    2.5083 H       1  UNL11       0.0230
     24 H           3.0214   -1.3902    2.9458 H       1  UNL11       0.0230
     25 H           3.3836    0.4972    1.5211 H       1  UNL11       0.0268
     26 H           3.9706   -1.0365    0.6857 H       1  UNL11       0.0268
     27 H           1.5677    1.7646    0.6070 H       1  UNL11       0.0271
     28 H           0.5583    0.3986    1.0567 H       1  UNL11       0.0271
     29 H          -0.4784    2.1052   -0.4581 H       1  UNL11       0.0269
     30 H           0.8242    1.8964   -1.6181 H       1  UNL11       0.0269
     31 H           0.0814   -0.5585   -2.0511 H       1  UNL11       0.0314
     32 H          -1.1420    0.7207   -2.4531 H       1  UNL11       0.0314
     33 H           0.0188   -0.1910    0.8926 H       1  UNL11       0.0750
     34 H          -5.1252   -2.6078    0.5897 H       1  UNL11       0.4630
     35 H          -4.7842   -1.4563   -3.3914 H       1  UNL11       0.4575
     36 H           1.7398   -0.8294   -2.3020 H       1  UNL11       0.0271
     37 H           3.0518   -1.7419   -1.4422 H       1  UNL11       0.0271
     38 H           4.2776    0.4358   -1.0562 H       1  UNL11       0.0271
     39 H           2.8817    1.4075   -1.7235 H       1  UNL11       0.0271
     40 H          -3.4008   -2.1291    2.0125 H       1  UNL11       0.5697
@<TRIPOS>BOND
     1     1     2    1
     2     1    22    1
     3     1    23    1
     4     1    24    1
     5     2     3    1
     6     2    25    1
     7     2    26    1
     8     3     4    1
     9     3    20    1
    10     4     5    1
    11     4    27    1
    12     4    28    1
    13     5     6    1
    14     5    29    1
    15     5    30    1
    16     6     7    1
    17     6    31    1
    18     6    32    1
    19     7     8    2
    20     8     9    1
    21     8    33    1
    22     9    10    2
    23     9    11    1
    24    11    12    1
    25    12    13    1
    26    13    14   am
    27    13    34    1
    28    14    15    2
    29    14    16   am
    30    16    17   am
    31    16    35    1
    32    17    18    2
    33    17    19    1
    34    19     7    1
    35    19    12    2
    36    20    21    1
    37    20    36    1
    38    20    37    1
    39    21     3    1
    40    21    38    1
    41    21    39    1
    42    11    40    1
@<TRIPOS>MOLECULE
*****
 40 42 0 0 0
SMALL
GASTEIGER

@<TRIPOS>ATOM
      1 C           3.8985    1.7789   -0.6501 C.3     1  UNL11      -0.0648
      2 C           3.2632    0.5423   -1.1601 C.3     1  UNL11      -0.0502
      3 C           2.2343   -0.0670   -0.1677 C.3     1  UNL11      -0.0294
      4 C           1.1005    0.8206    0.1565 C.3     1  UNL11      -0.0471
      5 C           0.1770    1.3002   -0.8845 C.3     1  UNL11      -0.0485
      6 C          -0.5914    0.2417   -1.6426 C.3     1  UNL11      -0.0258
      7 C           0.4225   -0.6440   -2.2964 C.2     1  UNL11      -0.0023
      8 C           0.8854   -1.7643   -1.6046 C.2     1  UNL11       0.0850
      9 C           1.7624   -2.6198   -2.2187 C.2     1  UNL11       0.4852
     10 O           2.1671   -3.6362   -1.5589 O.2     1  UNL11      -0.1908
     11 O           2.1853   -2.4232   -3.4390 O.2     1  UNL11      -0.4698
     12 C           1.7854   -1.3915   -4.1289 C.2     1  UNL11       0.5347
     13 N           2.2121   -1.1709   -5.3828 N.am    1  UNL11      -0.0043
     14 C           1.8281   -0.1189   -6.1224 C.2     1  UNL11       0.6699
     15 O           2.2756    0.0270   -7.3110 O.2     1  UNL11      -0.1525
     16 N           0.9754    0.7796   -5.6163 N.am    1  UNL11      -0.0479
     17 C           0.5005    0.6143   -4.3435 C.2     1  UNL11       0.4376
     18 O          -0.2904    1.4619   -3.8822 O.2     1  UNL11      -0.2132
     19 C           0.8831   -0.4596   -3.5749 C.2     1  UNL11       0.2614
     20 C           2.6028   -1.3214    0.5601 C.3     1  UNL11      -0.0469
     21 C           1.8427   -1.4512   -0.7151 C.3     1  UNL11      -0.0469
     22 H           4.5524    1.7004    0.2123 H       1  UNL11       0.0230
     23 H           3.1145    2.5738   -0.5425 H       1  UNL11       0.0230
     24 H           4.5395    2.1694   -1.4902 H       1  UNL11       0.0230
     25 H           2.6308    0.8373   -2.0428 H       1  UNL11       0.0268
     26 H           3.9877   -0.2442   -1.4235 H       1  UNL11       0.0268
     27 H           1.5677    1.7646    0.6070 H       1  UNL11       0.0271
     28 H           0.5583    0.3986    1.0567 H       1  UNL11       0.0271
     29 H          -0.4784    2.1052   -0.4581 H       1  UNL11       0.0269
     30 H           0.8242    1.8964   -1.6181 H       1  UNL11       0.0269
     31 H          -1.1506    0.6694   -2.5168 H       1  UNL11       0.0314
     32 H          -1.2830   -0.2486   -0.9566 H       1  UNL11       0.0314
     33 H           0.5305   -1.9141   -0.6031 H       1  UNL11       0.0750
     34 H           2.8780   -1.8653   -5.7877 H       1  UNL11       0.4630
     35 H           0.6342    1.6191   -6.1283 H       1  UNL11       0.4575
     36 H           2.1458   -1.6936    1.4838 H       1  UNL11       0.0271
     37 H           3.6872   -1.6495    0.5270 H       1  UNL11       0.0271
     38 H           2.3394   -1.8399   -1.6040 H       1  UNL11       0.0271
     39 H           0.7650   -1.6731   -0.6922 H       1  UNL11       0.0271
     40 H           2.7846   -3.0321   -3.8238 H       1  UNL11       0.5697
@<TRIPOS>BOND
     1     1     2    1
     2     1    22    1
     3     1    23    1
     4     1    24    1
     5     2     3    1
     6     2    25    1
     7     2    26    1
     8     3     4    1
     9     3    20    1
    10     4     5    1
    11     4    27    1
    12     4    28    1
    13     5     6    1
    14     5    29    1
    15     5    30    1
    16     6     7    1
    17     6    31    1
    18     6    32    1
    19     7     8    2
    20     8     9    1
    21     8    33    1
    22     9    10    2
    23     9    11    1
    24    11    12    1
    25    12    13    1
    26    13    14   am
    27    13    34    1
    28    14    15    2
    29    14    16   am
    30    16    17   am
    31    16    35    1
    32    17    18    2
    33    17    19    1
    34    19     7    1
    35    19    12    2
    36    20    21    1
    37    20    36    1
    38    20    37    1
    39    21     3    1
    40    21    38    1
    41    21    39    1
    42    11    40    1
@<TRIPOS>MOLECULE
*****
 40 42 0 0 0
SMALL
GASTEIGER

@<TRIPOS>ATOM
      1 C           2.0946    0.2277    2.9814 C.3     1  UNL11      -0.0648
      2 C           2.8275    1.0735    2.0116 C.3     1  UNL11      -0.0502
      3 C           1.8946    1.7580    0.9745 C.3     1  UNL11      -0.0294
      4 C           1.1005    0.8206    0.1565 C.3     1  UNL11      -0.0471
      5 C           0.1770    1.3002   -0.8845 C.3     1  UNL11      -0.0485
      6 C          -0.5914    0.2417   -1.6426 C.3     1  UNL11      -0.0258
      7 C          -1.4400    0.9582   -2.6458 C.2     1  UNL11      -0.0023
      8 C          -1.7441    0.3210   -3.8497 C.2     1  UNL11       0.0850
      9 C          -2.5754    0.9389   -4.7471 C.2     1  UNL11       0.4852
     10 O          -2.8347    0.3294   -5.8396 O.2     1  UNL11      -0.1908
     11 O          -3.0982    2.1134   -4.5152 O.2     1  UNL11      -0.4698
     12 C          -2.8454    2.7526   -3.4070 C.2     1  UNL11       0.5347
     13 N          -3.3703    3.9621   -3.1528 N.am    1  UNL11      -0.0043
     14 C          -3.1298    4.6531   -2.0277 C.2     1  UNL11       0.6699
     15 O          -3.6653    5.8008   -1.8532 O.2     1  UNL11      -0.1525
     16 N          -2.3285    4.1413   -1.0862 N.am    1  UNL11      -0.0479
     17 C          -1.7609    2.9114   -1.2813 C.2     1  UNL11       0.4376
     18 O          -1.0121    2.4480   -0.3973 O.2     1  UNL11      -0.2132
     19 C          -2.0000    2.1909   -2.4275 C.2     1  UNL11       0.2614
     20 C           2.0773    3.2188    0.7065 C.3     1  UNL11      -0.0469
     21 C           1.0747    2.8169    1.7331 C.3     1  UNL11      -0.0469
     22 H           1.6023   -0.6660    2.6117 H       1  UNL11       0.0230
     23 H           1.4247    0.8801    3.6008 H       1  UNL11       0.0230
     24 H           2.8607   -0.1269    3.7273 H       1  UNL11       0.0230
     25 H           3.2559    1.9395    2.5885 H       1  UNL11       0.0268
     26 H           3.6076    0.5275    1.4584 H       1  UNL11       0.0268
     27 H           0.4478    0.2413    0.8987 H       1  UNL11       0.0271
     28 H           1.7845   -0.0017   -0.2155 H       1  UNL11       0.0271
     29 H          -0.4784    2.1052   -0.4581 H       1  UNL11       0.0269
     30 H           0.8242    1.8964   -1.6181 H       1  UNL11       0.0269
     31 H          -1.3502   -0.2746   -0.9965 H       1  UNL11       0.0314
     32 H           0.1158   -0.4839   -2.0459 H       1  UNL11       0.0314
     33 H          -1.3082   -0.6430   -4.0280 H       1  UNL11       0.0750
     34 H          -3.9967    4.3713   -3.8806 H       1  UNL11       0.4630
     35 H          -2.0953    4.6179   -0.1907 H       1  UNL11       0.4575
     36 H           1.7322    3.7640   -0.1791 H       1  UNL11       0.0271
     37 H           3.0193    3.7118    1.0992 H       1  UNL11       0.0271
     38 H           1.2766    3.0015    2.7881 H       1  UNL11       0.0271
     39 H           0.0014    2.8367    1.4902 H       1  UNL11       0.0271
     40 H          -3.6627    2.5021   -5.1541 H       1  UNL11       0.5697
@<TRIPOS>BOND
     1     1     2    1
     2     1    22    1
     3     1    23    1
     4     1    24    1
     5     2     3    1
     6     2    25    1
     7     2    26    1
     8     3     4    1
     9     3    20    1
    10     4     5    1
    11     4    27    1
    12     4    28    1
    13     5     6    1
    14     5    29    1
    15     5    30    1
    16     6     7    1
    17     6    31    1
    18     6    32    1
    19     7     8    2
    20     8     9    1
    21     8    33    1
    22     9    10    2
    23     9    11    1
    24    11    12    1
    25    12    13    1
    26    13    14   am
    27    13    34    1
    28    14    15    2
    29    14    16   am
    30    16    17   am
    31    16    35    1
    32    17    18    2
    33    17    19    1
    34    19     7    1
    35    19    12    2
    36    20    21    1
    37    20    36    1
    38    20    37    1
    39    21     3    1
    40    21    38    1
    41    21    39    1
    42    11    40    1
