@<TRIPOS>MOLECULE
*****
 47 50 0 0 0
SMALL
GASTEIGER

@<TRIPOS>ATOM
      1 C           0.9507    0.6011   -3.4814 C.3     1  UNL11      -0.0321
      2 C           1.5415   -0.7598   -3.6427 C.ar    1  UNL11       0.0427
      3 C           1.0030   -1.7700   -4.4007 C.ar    1  UNL11       0.1982
      4 N           1.8171   -2.8344   -4.2936 N.ar    1  UNL11      -0.1309
      5 N           2.8254   -2.4957   -3.4972 N.ar    1  UNL11      -0.1657
      6 C           2.7122   -1.2404   -3.0684 C.ar    1  UNL11       0.1195
      7 C           3.5546   -0.4167   -2.1935 C.3     1  UNL11       0.1381
      8 O           2.9339    0.0516   -1.0377 O.3     1  UNL11      -0.4547
      9 C           2.3913   -0.7071   -0.0244 C.2     1  UNL11       0.3424
     10 O           3.1578   -1.4763    0.5939 O.2     1  UNL11      -0.2448
     11 C           0.9762   -0.6382    0.3384 C.ar    1  UNL11       0.0943
     12 C           0.0395   -0.3429   -0.6158 C.ar    1  UNL11      -0.0414
     13 C          -1.3239   -0.2582   -0.3918 C.ar    1  UNL11      -0.0404
     14 C          -2.2736    0.0949   -1.4723 C.3     1  UNL11       0.0211
     15 C          -1.7391    0.9577   -2.5090 C.2     1  UNL11       0.1192
     16 N          -1.1606    0.3955   -3.5923 N.2     1  UNL11      -0.0073
     17 N          -0.6050    1.0612   -4.5748 N.am    1  UNL11      -0.0356
     18 C          -0.5592    2.3995   -4.5925 C.2     1  UNL11       0.4383
     19 O          -0.0437    3.0858   -5.4966 O.2     1  UNL11      -0.2116
     20 C          -1.1422    3.0434   -3.5006 C.ar    1  UNL11       0.1004
     21 C          -1.1643    4.4148   -3.4375 C.ar    1  UNL11      -0.0441
     22 C          -1.7562    5.0692   -2.3724 C.ar    1  UNL11      -0.0608
     23 C          -2.3379    4.3302   -1.3500 C.ar    1  UNL11      -0.0611
     24 C          -2.3240    2.9565   -1.3955 C.ar    1  UNL11      -0.0518
     25 C          -1.7269    2.3384   -2.4677 C.ar    1  UNL11       0.0192
     26 C          -1.7245   -0.4939    0.9013 C.ar    1  UNL11      -0.0555
     27 C          -0.7910   -0.7976    1.9025 C.ar    1  UNL11      -0.0254
     28 C           0.5460   -0.8680    1.6206 C.ar    1  UNL11       0.1374
     29 F           1.4139   -1.1636    2.6163 F       1  UNL11      -0.2046
     30 H           1.7724    1.3305   -3.3033 H       1  UNL11       0.0280
     31 H           0.4114    0.8876   -4.4120 H       1  UNL11       0.0280
     32 H           0.2611    0.6445   -2.6175 H       1  UNL11       0.0280
     33 H           0.0765   -1.7151   -4.9854 H       1  UNL11       0.1402
     34 H           1.6175   -3.7357   -4.7852 H       1  UNL11       0.4865
     35 H           4.4642   -1.0081   -1.9254 H       1  UNL11       0.0765
     36 H           3.9485    0.4819   -2.7396 H       1  UNL11       0.0765
     37 H           0.3729   -0.1570   -1.6459 H       1  UNL11       0.0629
     38 H          -3.2580    0.4185   -1.0645 H       1  UNL11       0.0379
     39 H          -2.5349   -0.8994   -1.9640 H       1  UNL11       0.0379
     40 H          -0.1553    0.5802   -5.4138 H       1  UNL11       0.4829
     41 H          -0.7007    4.9489   -4.2549 H       1  UNL11       0.0627
     42 H          -1.7622    6.1657   -2.3436 H       1  UNL11       0.0618
     43 H          -2.8058    4.8345   -0.5152 H       1  UNL11       0.0618
     44 H          -2.7604    2.3314   -0.6296 H       1  UNL11       0.0624
     45 H          -2.7418   -0.4562    1.2478 H       1  UNL11       0.0621
     46 H          -1.1415   -0.9810    2.9328 H       1  UNL11       0.0646
     47 H           3.5649   -3.0986   -3.2542 H       1  UNL11       0.2362
@<TRIPOS>BOND
     1     1     2    1
     2     1    30    1
     3     1    31    1
     4     1    32    1
     5     2     3   ar
     6     3     4   ar
     7     3    33    1
     8     4     5   ar
     9     4    34    1
    10     5     6   ar
    11     6     7    1
    12     6     2   ar
    13     7     8    1
    14     7    35    1
    15     7    36    1
    16     8     9    1
    17     9    10    2
    18     9    11    1
    19    11    12   ar
    20    12    13   ar
    21    12    37    1
    22    13    14    1
    23    13    26   ar
    24    14    15    1
    25    14    38    1
    26    14    39    1
    27    15    16    2
    28    16    17    1
    29    17    18   am
    30    17    40    1
    31    18    19    2
    32    18    20    1
    33    20    21   ar
    34    21    22   ar
    35    21    41    1
    36    22    23   ar
    37    22    42    1
    38    23    24   ar
    39    23    43    1
    40    24    25   ar
    41    24    44    1
    42    25    15    1
    43    25    20   ar
    44    26    27   ar
    45    26    45    1
    46    27    28   ar
    47    27    46    1
    48    28    29    1
    49    28    11   ar
    50     5    47    1
@<TRIPOS>MOLECULE
*****
 47 50 0 0 0
SMALL
GASTEIGER

@<TRIPOS>ATOM
      1 C           2.6658    1.8874    2.9641 C.3     1  UNL11      -0.0321
      2 C           3.0654    2.5284    1.6770 C.ar    1  UNL11       0.0427
      3 C           2.7343    3.8044    1.2937 C.ar    1  UNL11       0.1982
      4 N           3.2717    4.0147    0.0796 N.ar    1  UNL11      -0.1309
      5 N           3.9140    2.9075   -0.2773 N.ar    1  UNL11      -0.1657
      6 C           3.8236    1.9643    0.6580 C.ar    1  UNL11       0.1195
      7 C           4.3553    0.5988    0.7370 C.3     1  UNL11       0.1381
      8 O           3.3993   -0.4063    0.8646 O.3     1  UNL11      -0.4547
      9 C           2.3913   -0.7071   -0.0244 C.2     1  UNL11       0.3424
     10 O           2.7240   -1.0494   -1.1792 O.2     1  UNL11      -0.2448
     11 C           0.9762   -0.6382    0.3384 C.ar    1  UNL11       0.0943
     12 C           0.0395   -0.3429   -0.6158 C.ar    1  UNL11      -0.0414
     13 C          -1.3239   -0.2582   -0.3918 C.ar    1  UNL11      -0.0404
     14 C          -2.2736    0.0949   -1.4723 C.3     1  UNL11       0.0211
     15 C          -1.6720    0.3425   -2.7691 C.2     1  UNL11       0.1192
     16 N          -2.4695    0.6844   -3.8042 N.2     1  UNL11      -0.0073
     17 N          -2.0569    0.8931   -5.0303 N.am    1  UNL11      -0.0356
     18 C          -0.7682    0.7817   -5.3771 C.2     1  UNL11       0.4383
     19 O          -0.3178    0.9657   -6.5250 O.2     1  UNL11      -0.2116
     20 C           0.1106    0.4317   -4.3515 C.ar    1  UNL11       0.1004
     21 C           1.4552    0.3136   -4.6032 C.ar    1  UNL11      -0.0441
     22 C           2.3426   -0.0124   -3.5937 C.ar    1  UNL11      -0.0608
     23 C           1.8691   -0.2239   -2.3049 C.ar    1  UNL11      -0.0611
     24 C           0.5262   -0.1115   -2.0346 C.ar    1  UNL11      -0.0518
     25 C          -0.3280    0.2131   -3.0609 C.ar    1  UNL11       0.0192
     26 C          -1.7245   -0.4939    0.9013 C.ar    1  UNL11      -0.0555
     27 C          -0.7910   -0.7976    1.9025 C.ar    1  UNL11      -0.0254
     28 C           0.5460   -0.8680    1.6206 C.ar    1  UNL11       0.1374
     29 F           1.4139   -1.1636    2.6163 F       1  UNL11      -0.2046
     30 H           3.4443    1.1462    3.2531 H       1  UNL11       0.0280
     31 H           2.5930    2.6613    3.7607 H       1  UNL11       0.0280
     32 H           1.7022    1.3524    2.8692 H       1  UNL11       0.0280
     33 H           2.1389    4.5193    1.8748 H       1  UNL11       0.1402
     34 H           3.1563    4.9222   -0.4274 H       1  UNL11       0.4865
     35 H           4.9839    0.4150   -0.1687 H       1  UNL11       0.0765
     36 H           5.0621    0.4890    1.6027 H       1  UNL11       0.0765
     37 H           0.3729   -0.1570   -1.6459 H       1  UNL11       0.0629
     38 H          -2.9988    0.8735   -1.1437 H       1  UNL11       0.0379
     39 H          -2.9417   -0.8219   -1.5811 H       1  UNL11       0.0379
     40 H          -2.7191    1.1598   -5.8227 H       1  UNL11       0.4829
     41 H           1.7790    0.4876   -5.6196 H       1  UNL11       0.0627
     42 H           3.4126   -0.1008   -3.8182 H       1  UNL11       0.0618
     43 H           2.5571   -0.4759   -1.5092 H       1  UNL11       0.0618
     44 H           0.1020   -0.2646   -1.0525 H       1  UNL11       0.0624
     45 H          -2.7418   -0.4562    1.2478 H       1  UNL11       0.0621
     46 H          -1.1415   -0.9810    2.9328 H       1  UNL11       0.0646
     47 H           4.3970    2.7981   -1.1282 H       1  UNL11       0.2362
@<TRIPOS>BOND
     1     1     2    1
     2     1    30    1
     3     1    31    1
     4     1    32    1
     5     2     3   ar
     6     3     4   ar
     7     3    33    1
     8     4     5   ar
     9     4    34    1
    10     5     6   ar
    11     6     7    1
    12     6     2   ar
    13     7     8    1
    14     7    35    1
    15     7    36    1
    16     8     9    1
    17     9    10    2
    18     9    11    1
    19    11    12   ar
    20    12    13   ar
    21    12    37    1
    22    13    14    1
    23    13    26   ar
    24    14    15    1
    25    14    38    1
    26    14    39    1
    27    15    16    2
    28    16    17    1
    29    17    18   am
    30    17    40    1
    31    18    19    2
    32    18    20    1
    33    20    21   ar
    34    21    22   ar
    35    21    41    1
    36    22    23   ar
    37    22    42    1
    38    23    24   ar
    39    23    43    1
    40    24    25   ar
    41    24    44    1
    42    25    15    1
    43    25    20   ar
    44    26    27   ar
    45    26    45    1
    46    27    28   ar
    47    27    46    1
    48    28    29    1
    49    28    11   ar
    50     5    47    1
@<TRIPOS>MOLECULE
*****
 47 50 0 0 0
SMALL
GASTEIGER

@<TRIPOS>ATOM
      1 C           6.2600   -1.7636    1.2526 C.3     1  UNL11      -0.0321
      2 C           6.3392   -0.7980    0.1175 C.ar    1  UNL11       0.0427
      3 C           7.2854   -0.8235   -0.8769 C.ar    1  UNL11       0.1982
      4 N           7.0276    0.2015   -1.7075 N.ar    1  UNL11      -0.1309
      5 N           5.9583    0.8402   -1.2443 N.ar    1  UNL11      -0.1657
      6 C           5.4931    0.2760   -0.1317 C.ar    1  UNL11       0.1195
      7 C           4.3553    0.5988    0.7370 C.3     1  UNL11       0.1381
      8 O           3.3993   -0.4063    0.8646 O.3     1  UNL11      -0.4547
      9 C           2.3913   -0.7071   -0.0244 C.2     1  UNL11       0.3424
     10 O           2.7240   -1.0494   -1.1792 O.2     1  UNL11      -0.2448
     11 C           0.9762   -0.6382    0.3384 C.ar    1  UNL11       0.0943
     12 C           0.0395   -0.3429   -0.6158 C.ar    1  UNL11      -0.0414
     13 C          -1.3239   -0.2582   -0.3918 C.ar    1  UNL11      -0.0404
     14 C          -2.2736    0.0949   -1.4723 C.3     1  UNL11       0.0211
     15 C          -1.6720    0.3425   -2.7691 C.2     1  UNL11       0.1192
     16 N          -2.4695    0.6844   -3.8042 N.2     1  UNL11      -0.0073
     17 N          -2.0569    0.8931   -5.0303 N.am    1  UNL11      -0.0356
     18 C          -0.7682    0.7817   -5.3771 C.2     1  UNL11       0.4383
     19 O          -0.3178    0.9657   -6.5250 O.2     1  UNL11      -0.2116
     20 C           0.1106    0.4317   -4.3515 C.ar    1  UNL11       0.1004
     21 C           1.4552    0.3136   -4.6032 C.ar    1  UNL11      -0.0441
     22 C           2.3426   -0.0124   -3.5937 C.ar    1  UNL11      -0.0608
     23 C           1.8691   -0.2239   -2.3049 C.ar    1  UNL11      -0.0611
     24 C           0.5262   -0.1115   -2.0346 C.ar    1  UNL11      -0.0518
     25 C          -0.3280    0.2131   -3.0609 C.ar    1  UNL11       0.0192
     26 C          -1.7245   -0.4939    0.9013 C.ar    1  UNL11      -0.0555
     27 C          -0.7910   -0.7976    1.9025 C.ar    1  UNL11      -0.0254
     28 C           0.5460   -0.8680    1.6206 C.ar    1  UNL11       0.1374
     29 F           1.4139   -1.1636    2.6163 F       1  UNL11      -0.2046
     30 H           5.1963   -1.8645    1.5648 H       1  UNL11       0.0280
     31 H           6.6339   -2.7591    0.9237 H       1  UNL11       0.0280
     32 H           6.8412   -1.4123    2.1258 H       1  UNL11       0.0280
     33 H           8.1022   -1.5494   -0.9726 H       1  UNL11       0.1402
     34 H           7.6167    0.3929   -2.5502 H       1  UNL11       0.4865
     35 H           4.7519    0.8785    1.7438 H       1  UNL11       0.0765
     36 H           3.8181    1.5166    0.3763 H       1  UNL11       0.0765
     37 H           0.3729   -0.1570   -1.6459 H       1  UNL11       0.0629
     38 H          -2.9988    0.8735   -1.1437 H       1  UNL11       0.0379
     39 H          -2.9417   -0.8219   -1.5811 H       1  UNL11       0.0379
     40 H          -2.7191    1.1598   -5.8227 H       1  UNL11       0.4829
     41 H           1.7790    0.4876   -5.6196 H       1  UNL11       0.0627
     42 H           3.4126   -0.1008   -3.8182 H       1  UNL11       0.0618
     43 H           2.5571   -0.4759   -1.5092 H       1  UNL11       0.0618
     44 H           0.1020   -0.2646   -1.0525 H       1  UNL11       0.0624
     45 H          -2.7418   -0.4562    1.2478 H       1  UNL11       0.0621
     46 H          -1.1415   -0.9810    2.9328 H       1  UNL11       0.0646
     47 H           5.5594    1.6326   -1.6711 H       1  UNL11       0.2362
@<TRIPOS>BOND
     1     1     2    1
     2     1    30    1
     3     1    31    1
     4     1    32    1
     5     2     3   ar
     6     3     4   ar
     7     3    33    1
     8     4     5   ar
     9     4    34    1
    10     5     6   ar
    11     6     7    1
    12     6     2   ar
    13     7     8    1
    14     7    35    1
    15     7    36    1
    16     8     9    1
    17     9    10    2
    18     9    11    1
    19    11    12   ar
    20    12    13   ar
    21    12    37    1
    22    13    14    1
    23    13    26   ar
    24    14    15    1
    25    14    38    1
    26    14    39    1
    27    15    16    2
    28    16    17    1
    29    17    18   am
    30    17    40    1
    31    18    19    2
    32    18    20    1
    33    20    21   ar
    34    21    22   ar
    35    21    41    1
    36    22    23   ar
    37    22    42    1
    38    23    24   ar
    39    23    43    1
    40    24    25   ar
    41    24    44    1
    42    25    15    1
    43    25    20   ar
    44    26    27   ar
    45    26    45    1
    46    27    28   ar
    47    27    46    1
    48    28    29    1
    49    28    11   ar
    50     5    47    1
@<TRIPOS>MOLECULE
*****
 47 50 0 0 0
SMALL
GASTEIGER

@<TRIPOS>ATOM
      1 C           5.9959    3.2353   -0.4091 C.3     1  UNL11      -0.0321
      2 C           4.6456    3.1027    0.2123 C.ar    1  UNL11       0.0427
      3 C           4.1028    3.9808    1.1174 C.ar    1  UNL11       0.1982
      4 N           2.8821    3.5222    1.4443 N.ar    1  UNL11      -0.1309
      5 N           2.6752    2.3989    0.7651 N.ar    1  UNL11      -0.1657
      6 C           3.7171    2.0917   -0.0047 C.ar    1  UNL11       0.1195
      7 C           3.9679    0.9785   -0.9275 C.3     1  UNL11       0.1381
      8 O           2.9339    0.0516   -1.0377 O.3     1  UNL11      -0.4547
      9 C           2.3913   -0.7071   -0.0244 C.2     1  UNL11       0.3424
     10 O           3.1578   -1.4763    0.5939 O.2     1  UNL11      -0.2448
     11 C           0.9762   -0.6382    0.3384 C.ar    1  UNL11       0.0943
     12 C           0.0395   -0.3429   -0.6158 C.ar    1  UNL11      -0.0414
     13 C          -1.3239   -0.2582   -0.3918 C.ar    1  UNL11      -0.0404
     14 C          -2.2736    0.0949   -1.4723 C.3     1  UNL11       0.0211
     15 C          -2.2941   -0.8164   -2.6010 C.2     1  UNL11       0.1192
     16 N          -1.4729   -1.8887   -2.5893 N.2     1  UNL11      -0.0073
     17 N          -1.3661   -2.7609   -3.5615 N.am    1  UNL11      -0.0356
     18 C          -2.0831   -2.6631   -4.6883 C.2     1  UNL11       0.4383
     19 O          -2.0229   -3.4591   -5.6459 O.2     1  UNL11      -0.2116
     20 C          -2.9543   -1.5758   -4.7636 C.ar    1  UNL11       0.1004
     21 C          -3.7480   -1.4010   -5.8704 C.ar    1  UNL11      -0.0441
     22 C          -4.6317   -0.3403   -5.9524 C.ar    1  UNL11      -0.0608
     23 C          -4.7197    0.5631   -4.9008 C.ar    1  UNL11      -0.0611
     24 C          -3.9319    0.4049   -3.7856 C.ar    1  UNL11      -0.0518
     25 C          -3.0642   -0.6595   -3.7370 C.ar    1  UNL11       0.0192
     26 C          -1.7245   -0.4939    0.9013 C.ar    1  UNL11      -0.0555
     27 C          -0.7910   -0.7976    1.9025 C.ar    1  UNL11      -0.0254
     28 C           0.5460   -0.8680    1.6206 C.ar    1  UNL11       0.1374
     29 F           1.4139   -1.1636    2.6163 F       1  UNL11      -0.2046
     30 H           5.9748    2.7652   -1.4178 H       1  UNL11       0.0280
     31 H           6.2526    4.3127   -0.5200 H       1  UNL11       0.0280
     32 H           6.7711    2.7230    0.1912 H       1  UNL11       0.0280
     33 H           4.5813    4.8898    1.5020 H       1  UNL11       0.1402
     34 H           2.2661    4.0238    2.1245 H       1  UNL11       0.4865
     35 H           4.2076    1.4044   -1.9327 H       1  UNL11       0.0765
     36 H           4.8884    0.4072   -0.6321 H       1  UNL11       0.0765
     37 H           0.3729   -0.1570   -1.6459 H       1  UNL11       0.0629
     38 H          -2.1993    1.1710   -1.7491 H       1  UNL11       0.0379
     39 H          -3.3010    0.0457   -0.9818 H       1  UNL11       0.0379
     40 H          -0.7031   -3.5950   -3.5159 H       1  UNL11       0.4829
     41 H          -3.6468   -2.1281   -6.6637 H       1  UNL11       0.0627
     42 H          -5.2561   -0.2210   -6.8463 H       1  UNL11       0.0618
     43 H          -5.4107    1.3934   -4.9558 H       1  UNL11       0.0618
     44 H          -3.9580    1.0756   -2.9386 H       1  UNL11       0.0624
     45 H          -2.7418   -0.4562    1.2478 H       1  UNL11       0.0621
     46 H          -1.1415   -0.9810    2.9328 H       1  UNL11       0.0646
     47 H           1.8531    1.8605    0.8239 H       1  UNL11       0.2362
@<TRIPOS>BOND
     1     1     2    1
     2     1    30    1
     3     1    31    1
     4     1    32    1
     5     2     3   ar
     6     3     4   ar
     7     3    33    1
     8     4     5   ar
     9     4    34    1
    10     5     6   ar
    11     6     7    1
    12     6     2   ar
    13     7     8    1
    14     7    35    1
    15     7    36    1
    16     8     9    1
    17     9    10    2
    18     9    11    1
    19    11    12   ar
    20    12    13   ar
    21    12    37    1
    22    13    14    1
    23    13    26   ar
    24    14    15    1
    25    14    38    1
    26    14    39    1
    27    15    16    2
    28    16    17    1
    29    17    18   am
    30    17    40    1
    31    18    19    2
    32    18    20    1
    33    20    21   ar
    34    21    22   ar
    35    21    41    1
    36    22    23   ar
    37    22    42    1
    38    23    24   ar
    39    23    43    1
    40    24    25   ar
    41    24    44    1
    42    25    15    1
    43    25    20   ar
    44    26    27   ar
    45    26    45    1
    46    27    28   ar
    47    27    46    1
    48    28    29    1
    49    28    11   ar
    50     5    47    1
@<TRIPOS>MOLECULE
*****
 47 50 0 0 0
SMALL
GASTEIGER

@<TRIPOS>ATOM
      1 C           3.5500   -2.4411    3.3168 C.3     1  UNL11      -0.0321
      2 C           4.2373   -3.0553    2.1431 C.ar    1  UNL11       0.0427
      3 C           4.4651   -4.3987    1.9751 C.ar    1  UNL11       0.1982
      4 N           5.1067   -4.5572    0.8045 N.ar    1  UNL11      -0.1309
      5 N           5.2708   -3.3538    0.2654 N.ar    1  UNL11      -0.1657
      6 C           4.7601   -2.3964    1.0368 C.ar    1  UNL11       0.1195
      7 C           4.6863   -0.9390    0.8822 C.3     1  UNL11       0.1381
      8 O           3.3993   -0.4063    0.8646 O.3     1  UNL11      -0.4547
      9 C           2.3913   -0.7071   -0.0244 C.2     1  UNL11       0.3424
     10 O           2.7240   -1.0494   -1.1792 O.2     1  UNL11      -0.2448
     11 C           0.9762   -0.6382    0.3384 C.ar    1  UNL11       0.0943
     12 C           0.0395   -0.3429   -0.6158 C.ar    1  UNL11      -0.0414
     13 C          -1.3239   -0.2582   -0.3918 C.ar    1  UNL11      -0.0404
     14 C          -2.2736    0.0949   -1.4723 C.3     1  UNL11       0.0211
     15 C          -3.0586    1.2927   -1.2398 C.2     1  UNL11       0.1192
     16 N          -3.8579    1.3485   -0.1525 N.2     1  UNL11      -0.0073
     17 N          -4.6454    2.3521    0.1474 N.am    1  UNL11      -0.0356
     18 C          -4.7310    3.4450   -0.6217 C.2     1  UNL11       0.4383
     19 O          -5.4618    4.4280   -0.3893 O.2     1  UNL11      -0.2116
     20 C          -3.9276    3.4516   -1.7625 C.ar    1  UNL11       0.1004
     21 C          -3.9294    4.5372   -2.6033 C.ar    1  UNL11      -0.0441
     22 C          -3.1239    4.5686   -3.7271 C.ar    1  UNL11      -0.0608
     23 C          -2.2997    3.4872   -4.0118 C.ar    1  UNL11      -0.0611
     24 C          -2.2858    2.3912   -3.1823 C.ar    1  UNL11      -0.0518
     25 C          -3.0990    2.3924   -2.0746 C.ar    1  UNL11       0.0192
     26 C          -1.7245   -0.4939    0.9013 C.ar    1  UNL11      -0.0555
     27 C          -0.7910   -0.7976    1.9025 C.ar    1  UNL11      -0.0254
     28 C           0.5460   -0.8680    1.6206 C.ar    1  UNL11       0.1374
     29 F           1.4139   -1.1636    2.6163 F       1  UNL11      -0.2046
     30 H           3.0410   -1.5078    2.9870 H       1  UNL11       0.0280
     31 H           2.7858   -3.1461    3.7140 H       1  UNL11       0.0280
     32 H           4.2687   -2.1754    4.1148 H       1  UNL11       0.0280
     33 H           4.1753   -5.1950    2.6717 H       1  UNL11       0.1402
     34 H           5.3920   -5.4999    0.4527 H       1  UNL11       0.4865
     35 H           5.2827   -0.4693    1.7024 H       1  UNL11       0.0765
     36 H           5.1903   -0.6062   -0.0645 H       1  UNL11       0.0765
     37 H           0.3729   -0.1570   -1.6459 H       1  UNL11       0.0629
     38 H          -2.8658   -0.7881   -1.8036 H       1  UNL11       0.0379
     39 H          -1.6161    0.2951   -2.3813 H       1  UNL11       0.0379
     40 H          -5.2647    2.3580    1.0156 H       1  UNL11       0.4829
     41 H          -4.5853    5.3558   -2.3426 H       1  UNL11       0.0627
     42 H          -3.1417    5.4468   -4.3842 H       1  UNL11       0.0618
     43 H          -1.6644    3.5054   -4.8870 H       1  UNL11       0.0618
     44 H          -1.6658    1.5229   -3.3539 H       1  UNL11       0.0624
     45 H          -2.7418   -0.4562    1.2478 H       1  UNL11       0.0621
     46 H          -1.1415   -0.9810    2.9328 H       1  UNL11       0.0646
     47 H           5.7150   -3.1904   -0.5979 H       1  UNL11       0.2362
@<TRIPOS>BOND
     1     1     2    1
     2     1    30    1
     3     1    31    1
     4     1    32    1
     5     2     3   ar
     6     3     4   ar
     7     3    33    1
     8     4     5   ar
     9     4    34    1
    10     5     6   ar
    11     6     7    1
    12     6     2   ar
    13     7     8    1
    14     7    35    1
    15     7    36    1
    16     8     9    1
    17     9    10    2
    18     9    11    1
    19    11    12   ar
    20    12    13   ar
    21    12    37    1
    22    13    14    1
    23    13    26   ar
    24    14    15    1
    25    14    38    1
    26    14    39    1
    27    15    16    2
    28    16    17    1
    29    17    18   am
    30    17    40    1
    31    18    19    2
    32    18    20    1
    33    20    21   ar
    34    21    22   ar
    35    21    41    1
    36    22    23   ar
    37    22    42    1
    38    23    24   ar
    39    23    43    1
    40    24    25   ar
    41    24    44    1
    42    25    15    1
    43    25    20   ar
    44    26    27   ar
    45    26    45    1
    46    27    28   ar
    47    27    46    1
    48    28    29    1
    49    28    11   ar
    50     5    47    1
@<TRIPOS>MOLECULE
*****
 47 50 0 0 0
SMALL
GASTEIGER

@<TRIPOS>ATOM
      1 C           4.7721   -4.5249   -2.1723 C.3     1  UNL11      -0.0321
      2 C           3.6944   -4.6981   -1.1546 C.ar    1  UNL11       0.0427
      3 C           2.8559   -5.7818   -1.0685 C.ar    1  UNL11       0.1982
      4 N           2.0259   -5.5701   -0.0325 N.ar    1  UNL11      -0.1309
      5 N           2.3392   -4.3960    0.5053 N.ar    1  UNL11      -0.1657
      6 C           3.3509   -3.8161   -0.1371 C.ar    1  UNL11       0.1195
      7 C           4.0524   -2.5440    0.0711 C.3     1  UNL11       0.1381
      8 O           3.2848   -1.5251    0.6308 O.3     1  UNL11      -0.4547
      9 C           2.3913   -0.7071   -0.0244 C.2     1  UNL11       0.3424
     10 O           2.8307   -0.0065   -0.9612 O.2     1  UNL11      -0.2448
     11 C           0.9762   -0.6382    0.3384 C.ar    1  UNL11       0.0943
     12 C           0.0395   -0.3429   -0.6158 C.ar    1  UNL11      -0.0414
     13 C          -1.3239   -0.2582   -0.3918 C.ar    1  UNL11      -0.0404
     14 C          -2.2736    0.0949   -1.4723 C.3     1  UNL11       0.0211
     15 C          -2.5482    1.5122   -1.6167 C.2     1  UNL11       0.1192
     16 N          -3.7592    1.8993   -2.0727 N.2     1  UNL11      -0.0073
     17 N          -4.1167    3.1418   -2.2864 N.am    1  UNL11      -0.0356
     18 C          -3.2875    4.1699   -2.0656 C.2     1  UNL11       0.4383
     19 O          -3.5701    5.3698   -2.2519 O.2     1  UNL11      -0.2116
     20 C          -2.0182    3.8376   -1.5910 C.ar    1  UNL11       0.1004
     21 C          -1.1035    4.8236   -1.3141 C.ar    1  UNL11      -0.0441
     22 C           0.1518    4.5128   -0.8237 C.ar    1  UNL11      -0.0608
     23 C           0.4949    3.1842   -0.6070 C.ar    1  UNL11      -0.0611
     24 C          -0.4074    2.1838   -0.8798 C.ar    1  UNL11      -0.0518
     25 C          -1.6455    2.5274   -1.3668 C.ar    1  UNL11       0.0192
     26 C          -1.7245   -0.4939    0.9013 C.ar    1  UNL11      -0.0555
     27 C          -0.7910   -0.7976    1.9025 C.ar    1  UNL11      -0.0254
     28 C           0.5460   -0.8680    1.6206 C.ar    1  UNL11       0.1374
     29 F           1.4139   -1.1636    2.6163 F       1  UNL11      -0.2046
     30 H           5.5863   -3.9071   -1.7316 H       1  UNL11       0.0280
     31 H           5.1865   -5.5195   -2.4513 H       1  UNL11       0.0280
     32 H           4.3985   -4.0056   -3.0749 H       1  UNL11       0.0280
     33 H           2.8642   -6.6588   -1.7274 H       1  UNL11       0.1402
     34 H           1.2885   -6.2613    0.2364 H       1  UNL11       0.4865
     35 H           4.9501   -2.7394    0.7076 H       1  UNL11       0.0765
     36 H           4.4671   -2.1477   -0.8943 H       1  UNL11       0.0765
     37 H           0.3729   -0.1570   -1.6459 H       1  UNL11       0.0629
     38 H          -3.1804   -0.5510   -1.4496 H       1  UNL11       0.0379
     39 H          -1.7614   -0.2477   -2.4309 H       1  UNL11       0.0379
     40 H          -5.0834    3.4079   -2.6501 H       1  UNL11       0.4829
     41 H          -1.4135    5.8427   -1.4971 H       1  UNL11       0.0627
     42 H           0.8660    5.3173   -0.6093 H       1  UNL11       0.0618
     43 H           1.4734    2.9332   -0.2205 H       1  UNL11       0.0618
     44 H          -0.1956    1.1346   -0.7308 H       1  UNL11       0.0624
     45 H          -2.7418   -0.4562    1.2478 H       1  UNL11       0.0621
     46 H          -1.1415   -0.9810    2.9328 H       1  UNL11       0.0646
     47 H           1.8799   -4.0034    1.2826 H       1  UNL11       0.2362
@<TRIPOS>BOND
     1     1     2    1
     2     1    30    1
     3     1    31    1
     4     1    32    1
     5     2     3   ar
     6     3     4   ar
     7     3    33    1
     8     4     5   ar
     9     4    34    1
    10     5     6   ar
    11     6     7    1
    12     6     2   ar
    13     7     8    1
    14     7    35    1
    15     7    36    1
    16     8     9    1
    17     9    10    2
    18     9    11    1
    19    11    12   ar
    20    12    13   ar
    21    12    37    1
    22    13    14    1
    23    13    26   ar
    24    14    15    1
    25    14    38    1
    26    14    39    1
    27    15    16    2
    28    16    17    1
    29    17    18   am
    30    17    40    1
    31    18    19    2
    32    18    20    1
    33    20    21   ar
    34    21    22   ar
    35    21    41    1
    36    22    23   ar
    37    22    42    1
    38    23    24   ar
    39    23    43    1
    40    24    25   ar
    41    24    44    1
    42    25    15    1
    43    25    20   ar
    44    26    27   ar
    45    26    45    1
    46    27    28   ar
    47    27    46    1
    48    28    29    1
    49    28    11   ar
    50     5    47    1
@<TRIPOS>MOLECULE
*****
 47 50 0 0 0
SMALL
GASTEIGER

@<TRIPOS>ATOM
      1 C           5.9186    2.7161   -0.8592 C.3     1  UNL11      -0.0321
      2 C           6.1876    1.2483   -0.8414 C.ar    1  UNL11       0.0427
      3 C           7.1863    0.6196   -1.5430 C.ar    1  UNL11       0.1982
      4 N           7.1056   -0.6946   -1.2723 N.ar    1  UNL11      -0.1309
      5 N           6.0923   -0.8744   -0.4317 N.ar    1  UNL11      -0.1657
      6 C           5.4931    0.2760   -0.1317 C.ar    1  UNL11       0.1195
      7 C           4.3553    0.5988    0.7370 C.3     1  UNL11       0.1381
      8 O           3.3993   -0.4063    0.8646 O.3     1  UNL11      -0.4547
      9 C           2.3913   -0.7071   -0.0244 C.2     1  UNL11       0.3424
     10 O           2.7240   -1.0494   -1.1792 O.2     1  UNL11      -0.2448
     11 C           0.9762   -0.6382    0.3384 C.ar    1  UNL11       0.0943
     12 C           0.0395   -0.3429   -0.6158 C.ar    1  UNL11      -0.0414
     13 C          -1.3239   -0.2582   -0.3918 C.ar    1  UNL11      -0.0404
     14 C          -2.2736    0.0949   -1.4723 C.3     1  UNL11       0.0211
     15 C          -2.8053   -1.0284   -2.2209 C.2     1  UNL11       0.1192
     16 N          -3.9477   -1.6122   -1.7986 N.2     1  UNL11      -0.0073
     17 N          -4.5071   -2.6560   -2.3598 N.am    1  UNL11      -0.0356
     18 C          -3.9792   -3.2556   -3.4345 C.2     1  UNL11       0.4383
     19 O          -4.4638   -4.2504   -4.0090 O.2     1  UNL11      -0.2116
     20 C          -2.7966   -2.6993   -3.9231 C.ar    1  UNL11       0.1004
     21 C          -2.1899   -3.2305   -5.0345 C.ar    1  UNL11      -0.0441
     22 C          -1.0286   -2.6787   -5.5439 C.ar    1  UNL11      -0.0608
     23 C          -0.4655   -1.5704   -4.9240 C.ar    1  UNL11      -0.0611
     24 C          -1.0580   -1.0260   -3.8097 C.ar    1  UNL11      -0.0518
     25 C          -2.2107   -1.5993   -3.3293 C.ar    1  UNL11       0.0192
     26 C          -1.7245   -0.4939    0.9013 C.ar    1  UNL11      -0.0555
     27 C          -0.7910   -0.7976    1.9025 C.ar    1  UNL11      -0.0254
     28 C           0.5460   -0.8680    1.6206 C.ar    1  UNL11       0.1374
     29 F           1.4139   -1.1636    2.6163 F       1  UNL11      -0.2046
     30 H           5.4753    3.0119    0.1180 H       1  UNL11       0.0280
     31 H           6.8734    3.2698   -1.0030 H       1  UNL11       0.0280
     32 H           5.2017    2.9878   -1.6566 H       1  UNL11       0.0280
     33 H           7.9152    1.1047   -2.2038 H       1  UNL11       0.1402
     34 H           7.7658   -1.3882   -1.6930 H       1  UNL11       0.4865
     35 H           4.7519    0.8785    1.7438 H       1  UNL11       0.0765
     36 H           3.8181    1.5166    0.3763 H       1  UNL11       0.0765
     37 H           0.3729   -0.1570   -1.6459 H       1  UNL11       0.0629
     38 H          -1.8879    0.9283   -2.1022 H       1  UNL11       0.0379
     39 H          -3.1507    0.5875   -0.9369 H       1  UNL11       0.0379
     40 H          -5.4101   -3.0907   -1.9948 H       1  UNL11       0.4829
     41 H          -2.6631   -4.0918   -5.4845 H       1  UNL11       0.0627
     42 H          -0.5618   -3.1199   -6.4332 H       1  UNL11       0.0618
     43 H           0.4409   -1.1309   -5.3183 H       1  UNL11       0.0618
     44 H          -0.6651   -0.1654   -3.2872 H       1  UNL11       0.0624
     45 H          -2.7418   -0.4562    1.2478 H       1  UNL11       0.0621
     46 H          -1.1415   -0.9810    2.9328 H       1  UNL11       0.0646
     47 H           5.8184   -1.7502   -0.0748 H       1  UNL11       0.2362
@<TRIPOS>BOND
     1     1     2    1
     2     1    30    1
     3     1    31    1
     4     1    32    1
     5     2     3   ar
     6     3     4   ar
     7     3    33    1
     8     4     5   ar
     9     4    34    1
    10     5     6   ar
    11     6     7    1
    12     6     2   ar
    13     7     8    1
    14     7    35    1
    15     7    36    1
    16     8     9    1
    17     9    10    2
    18     9    11    1
    19    11    12   ar
    20    12    13   ar
    21    12    37    1
    22    13    14    1
    23    13    26   ar
    24    14    15    1
    25    14    38    1
    26    14    39    1
    27    15    16    2
    28    16    17    1
    29    17    18   am
    30    17    40    1
    31    18    19    2
    32    18    20    1
    33    20    21   ar
    34    21    22   ar
    35    21    41    1
    36    22    23   ar
    37    22    42    1
    38    23    24   ar
    39    23    43    1
    40    24    25   ar
    41    24    44    1
    42    25    15    1
    43    25    20   ar
    44    26    27   ar
    45    26    45    1
    46    27    28   ar
    47    27    46    1
    48    28    29    1
    49    28    11   ar
    50     5    47    1
@<TRIPOS>MOLECULE
*****
 47 50 0 0 0
SMALL
GASTEIGER

@<TRIPOS>ATOM
      1 C           4.6152   -1.2455   -4.9617 C.3     1  UNL11      -0.0321
      2 C           3.4200   -0.3929   -4.6939 C.ar    1  UNL11       0.0427
      3 C           2.6070    0.1527   -5.6564 C.ar    1  UNL11       0.1982
      4 N           1.6476    0.8527   -5.0266 N.ar    1  UNL11      -0.1309
      5 N           1.8582    0.7446   -3.7191 N.ar    1  UNL11      -0.1657
      6 C           2.9266   -0.0044   -3.4541 C.ar    1  UNL11       0.1195
      7 C           3.5546   -0.4167   -2.1935 C.3     1  UNL11       0.1381
      8 O           2.9339    0.0516   -1.0377 O.3     1  UNL11      -0.4547
      9 C           2.3913   -0.7071   -0.0244 C.2     1  UNL11       0.3424
     10 O           3.1578   -1.4763    0.5939 O.2     1  UNL11      -0.2448
     11 C           0.9762   -0.6382    0.3384 C.ar    1  UNL11       0.0943
     12 C           0.0395   -0.3429   -0.6158 C.ar    1  UNL11      -0.0414
     13 C          -1.3239   -0.2582   -0.3918 C.ar    1  UNL11      -0.0404
     14 C          -2.2736    0.0949   -1.4723 C.3     1  UNL11       0.0211
     15 C          -3.2813   -0.9076   -1.7631 C.2     1  UNL11       0.1192
     16 N          -4.1434   -1.2686   -0.7881 N.2     1  UNL11      -0.0073
     17 N          -5.0690   -2.1882   -0.9097 N.am    1  UNL11      -0.0356
     18 C          -5.2476   -2.8735   -2.0462 C.2     1  UNL11       0.4383
     19 O          -6.1079   -3.7589   -2.2202 O.2     1  UNL11      -0.2116
     20 C          -4.3884   -2.5468   -3.0960 C.ar    1  UNL11       0.1004
     21 C          -4.5066   -3.1796   -4.3088 C.ar    1  UNL11      -0.0441
     22 C          -3.6766   -2.8534   -5.3659 C.ar    1  UNL11      -0.0608
     23 C          -2.7082   -1.8711   -5.2009 C.ar    1  UNL11      -0.0611
     24 C          -2.5743   -1.2281   -3.9935 C.ar    1  UNL11      -0.0518
     25 C          -3.4148   -1.5771   -2.9639 C.ar    1  UNL11       0.0192
     26 C          -1.7245   -0.4939    0.9013 C.ar    1  UNL11      -0.0555
     27 C          -0.7910   -0.7976    1.9025 C.ar    1  UNL11      -0.0254
     28 C           0.5460   -0.8680    1.6206 C.ar    1  UNL11       0.1374
     29 F           1.4139   -1.1636    2.6163 F       1  UNL11      -0.2046
     30 H           4.7517   -1.9500   -4.1109 H       1  UNL11       0.0280
     31 H           4.4542   -1.8336   -5.8929 H       1  UNL11       0.0280
     32 H           5.5349   -0.6378   -5.0540 H       1  UNL11       0.0280
     33 H           2.7228    0.0368   -6.7410 H       1  UNL11       0.1402
     34 H           0.9017    1.3652   -5.5509 H       1  UNL11       0.4865
     35 H           3.6029   -1.5332   -2.1753 H       1  UNL11       0.0765
     36 H           4.6258   -0.0833   -2.1468 H       1  UNL11       0.0765
     37 H           0.3729   -0.1570   -1.6459 H       1  UNL11       0.0629
     38 H          -1.7464    0.4931   -2.3687 H       1  UNL11       0.0379
     39 H          -2.8193    1.0183   -1.0874 H       1  UNL11       0.0379
     40 H          -5.7306   -2.4474   -0.1143 H       1  UNL11       0.4829
     41 H          -5.2739   -3.9363   -4.3922 H       1  UNL11       0.0627
     42 H          -3.7898   -3.3720   -6.3259 H       1  UNL11       0.0618
     43 H          -2.0574   -1.6079   -6.0238 H       1  UNL11       0.0618
     44 H          -1.8399   -0.4573   -3.8081 H       1  UNL11       0.0624
     45 H          -2.7418   -0.4562    1.2478 H       1  UNL11       0.0621
     46 H          -1.1415   -0.9810    2.9328 H       1  UNL11       0.0646
     47 H           1.2940    1.1662   -3.0312 H       1  UNL11       0.2362
@<TRIPOS>BOND
     1     1     2    1
     2     1    30    1
     3     1    31    1
     4     1    32    1
     5     2     3   ar
     6     3     4   ar
     7     3    33    1
     8     4     5   ar
     9     4    34    1
    10     5     6   ar
    11     6     7    1
    12     6     2   ar
    13     7     8    1
    14     7    35    1
    15     7    36    1
    16     8     9    1
    17     9    10    2
    18     9    11    1
    19    11    12   ar
    20    12    13   ar
    21    12    37    1
    22    13    14    1
    23    13    26   ar
    24    14    15    1
    25    14    38    1
    26    14    39    1
    27    15    16    2
    28    16    17    1
    29    17    18   am
    30    17    40    1
    31    18    19    2
    32    18    20    1
    33    20    21   ar
    34    21    22   ar
    35    21    41    1
    36    22    23   ar
    37    22    42    1
    38    23    24   ar
    39    23    43    1
    40    24    25   ar
    41    24    44    1
    42    25    15    1
    43    25    20   ar
    44    26    27   ar
    45    26    45    1
    46    27    28   ar
    47    27    46    1
    48    28    29    1
    49    28    11   ar
    50     5    47    1
@<TRIPOS>MOLECULE
*****
 47 50 0 0 0
SMALL
GASTEIGER

@<TRIPOS>ATOM
      1 C           4.2651   -4.7789   -3.1132 C.3     1  UNL11      -0.0321
      2 C           3.3829   -4.6542   -1.9160 C.ar    1  UNL11       0.0427
      3 C           2.7204   -5.6936   -1.3112 C.ar    1  UNL11       0.1982
      4 N           2.0317   -5.1859   -0.2743 N.ar    1  UNL11      -0.1309
      5 N           2.2595   -3.8773   -0.2374 N.ar    1  UNL11      -0.1657
      6 C           3.0776   -3.4936   -1.2152 C.ar    1  UNL11       0.1195
      7 C           3.6239   -2.1835   -1.5876 C.3     1  UNL11       0.1381
      8 O           2.8170   -1.0914   -1.2766 O.3     1  UNL11      -0.4547
      9 C           2.3913   -0.7071   -0.0244 C.2     1  UNL11       0.3424
     10 O           3.2668   -0.4109    0.8166 O.2     1  UNL11      -0.2448
     11 C           0.9762   -0.6382    0.3384 C.ar    1  UNL11       0.0943
     12 C           0.0395   -0.3429   -0.6158 C.ar    1  UNL11      -0.0414
     13 C          -1.3239   -0.2582   -0.3918 C.ar    1  UNL11      -0.0404
     14 C          -2.2736    0.0949   -1.4723 C.3     1  UNL11       0.0211
     15 C          -2.8053   -1.0284   -2.2209 C.2     1  UNL11       0.1192
     16 N          -4.0459   -0.9339   -2.7466 N.2     1  UNL11      -0.0073
     17 N          -4.6547   -1.8891   -3.4056 N.am    1  UNL11      -0.0356
     18 C          -4.0838   -3.0809   -3.6224 C.2     1  UNL11       0.4383
     19 O          -4.6133   -4.0263   -4.2391 O.2     1  UNL11      -0.2116
     20 C          -2.7980   -3.2435   -3.1054 C.ar    1  UNL11       0.1004
     21 C          -2.1209   -4.4230   -3.2942 C.ar    1  UNL11      -0.0441
     22 C          -0.8381   -4.5935   -2.8062 C.ar    1  UNL11      -0.0608
     23 C          -0.2232   -3.5576   -2.1145 C.ar    1  UNL11      -0.0611
     24 C          -0.8862   -2.3703   -1.9146 C.ar    1  UNL11      -0.0518
     25 C          -2.1600   -2.2346   -2.4121 C.ar    1  UNL11       0.0192
     26 C          -1.7245   -0.4939    0.9013 C.ar    1  UNL11      -0.0555
     27 C          -0.7910   -0.7976    1.9025 C.ar    1  UNL11      -0.0254
     28 C           0.5460   -0.8680    1.6206 C.ar    1  UNL11       0.1374
     29 F           1.4139   -1.1636    2.6163 F       1  UNL11      -0.2046
     30 H           5.0445   -3.9855   -3.0692 H       1  UNL11       0.0280
     31 H           4.7643   -5.7737   -3.1082 H       1  UNL11       0.0280
     32 H           3.6956   -4.6476   -4.0525 H       1  UNL11       0.0280
     33 H           2.7497   -6.7455   -1.6208 H       1  UNL11       0.1402
     34 H           1.4423   -5.7870    0.3463 H       1  UNL11       0.4865
     35 H           4.6238   -2.0701   -1.1014 H       1  UNL11       0.0765
     36 H           3.8341   -2.1308   -2.6894 H       1  UNL11       0.0765
     37 H           0.3729   -0.1570   -1.6459 H       1  UNL11       0.0629
     38 H          -1.8879    0.9283   -2.1022 H       1  UNL11       0.0379
     39 H          -3.1507    0.5875   -0.9369 H       1  UNL11       0.0379
     40 H          -5.6376   -1.7770   -3.8043 H       1  UNL11       0.4829
     41 H          -2.6374   -5.2011   -3.8384 H       1  UNL11       0.0627
     42 H          -0.3164   -5.5445   -2.9694 H       1  UNL11       0.0618
     43 H           0.7811   -3.6818   -1.7325 H       1  UNL11       0.0618
     44 H          -0.4580   -1.5314   -1.3848 H       1  UNL11       0.0624
     45 H          -2.7418   -0.4562    1.2478 H       1  UNL11       0.0621
     46 H          -1.1415   -0.9810    2.9328 H       1  UNL11       0.0646
     47 H           1.8714   -3.2669    0.4304 H       1  UNL11       0.2362
@<TRIPOS>BOND
     1     1     2    1
     2     1    30    1
     3     1    31    1
     4     1    32    1
     5     2     3   ar
     6     3     4   ar
     7     3    33    1
     8     4     5   ar
     9     4    34    1
    10     5     6   ar
    11     6     7    1
    12     6     2   ar
    13     7     8    1
    14     7    35    1
    15     7    36    1
    16     8     9    1
    17     9    10    2
    18     9    11    1
    19    11    12   ar
    20    12    13   ar
    21    12    37    1
    22    13    14    1
    23    13    26   ar
    24    14    15    1
    25    14    38    1
    26    14    39    1
    27    15    16    2
    28    16    17    1
    29    17    18   am
    30    17    40    1
    31    18    19    2
    32    18    20    1
    33    20    21   ar
    34    21    22   ar
    35    21    41    1
    36    22    23   ar
    37    22    42    1
    38    23    24   ar
    39    23    43    1
    40    24    25   ar
    41    24    44    1
    42    25    15    1
    43    25    20   ar
    44    26    27   ar
    45    26    45    1
    46    27    28   ar
    47    27    46    1
    48    28    29    1
    49    28    11   ar
    50     5    47    1
@<TRIPOS>MOLECULE
*****
 47 50 0 0 0
SMALL
GASTEIGER

@<TRIPOS>ATOM
      1 C           4.5477   -4.1668   -1.3856 C.3     1  UNL11      -0.0321
      2 C           3.2809   -3.8524   -2.1093 C.ar    1  UNL11       0.0427
      3 C           2.3736   -4.7819   -2.5540 C.ar    1  UNL11       0.1982
      4 N           1.3730   -4.1154   -3.1554 N.ar    1  UNL11      -0.1309
      5 N           1.6502   -2.8176   -3.0856 N.ar    1  UNL11      -0.1657
      6 C           2.8028   -2.5949   -2.4576 C.ar    1  UNL11       0.1195
      7 C           3.5251   -1.3604   -2.1292 C.3     1  UNL11       0.1381
      8 O           2.8399   -0.4707   -1.3049 O.3     1  UNL11      -0.4547
      9 C           2.3913   -0.7071   -0.0244 C.2     1  UNL11       0.3424
     10 O           3.2453   -0.9895    0.8430 O.2     1  UNL11      -0.2448
     11 C           0.9762   -0.6382    0.3384 C.ar    1  UNL11       0.0943
     12 C           0.0395   -0.3429   -0.6158 C.ar    1  UNL11      -0.0414
     13 C          -1.3239   -0.2582   -0.3918 C.ar    1  UNL11      -0.0404
     14 C          -2.2736    0.0949   -1.4723 C.3     1  UNL11       0.0211
     15 C          -2.8053   -1.0284   -2.2209 C.2     1  UNL11       0.1192
     16 N          -3.9477   -1.6122   -1.7986 N.2     1  UNL11      -0.0073
     17 N          -4.5071   -2.6560   -2.3598 N.am    1  UNL11      -0.0356
     18 C          -3.9792   -3.2556   -3.4345 C.2     1  UNL11       0.4383
     19 O          -4.4638   -4.2504   -4.0090 O.2     1  UNL11      -0.2116
     20 C          -2.7966   -2.6993   -3.9231 C.ar    1  UNL11       0.1004
     21 C          -2.1899   -3.2305   -5.0345 C.ar    1  UNL11      -0.0441
     22 C          -1.0286   -2.6787   -5.5439 C.ar    1  UNL11      -0.0608
     23 C          -0.4655   -1.5704   -4.9240 C.ar    1  UNL11      -0.0611
     24 C          -1.0580   -1.0260   -3.8097 C.ar    1  UNL11      -0.0518
     25 C          -2.2107   -1.5993   -3.3293 C.ar    1  UNL11       0.0192
     26 C          -1.7245   -0.4939    0.9013 C.ar    1  UNL11      -0.0555
     27 C          -0.7910   -0.7976    1.9025 C.ar    1  UNL11      -0.0254
     28 C           0.5460   -0.8680    1.6206 C.ar    1  UNL11       0.1374
     29 F           1.4139   -1.1636    2.6163 F       1  UNL11      -0.2046
     30 H           4.7953   -3.3179   -0.7097 H       1  UNL11       0.0280
     31 H           4.4104   -5.0858   -0.7729 H       1  UNL11       0.0280
     32 H           5.3924   -4.3039   -2.0867 H       1  UNL11       0.0280
     33 H           2.4542   -5.8698   -2.4385 H       1  UNL11       0.1402
     34 H           0.5547   -4.6097   -3.5795 H       1  UNL11       0.4865
     35 H           4.5011   -1.6396   -1.6617 H       1  UNL11       0.0765
     36 H           3.8045   -0.7953   -3.0586 H       1  UNL11       0.0765
     37 H           0.3729   -0.1570   -1.6459 H       1  UNL11       0.0629
     38 H          -1.8879    0.9283   -2.1022 H       1  UNL11       0.0379
     39 H          -3.1507    0.5875   -0.9369 H       1  UNL11       0.0379
     40 H          -5.4101   -3.0907   -1.9948 H       1  UNL11       0.4829
     41 H          -2.6631   -4.0918   -5.4845 H       1  UNL11       0.0627
     42 H          -0.5618   -3.1199   -6.4332 H       1  UNL11       0.0618
     43 H           0.4409   -1.1309   -5.3183 H       1  UNL11       0.0618
     44 H          -0.6651   -0.1654   -3.2872 H       1  UNL11       0.0624
     45 H          -2.7418   -0.4562    1.2478 H       1  UNL11       0.0621
     46 H          -1.1415   -0.9810    2.9328 H       1  UNL11       0.0646
     47 H           1.0744   -2.1085   -3.4528 H       1  UNL11       0.2362
@<TRIPOS>BOND
     1     1     2    1
     2     1    30    1
     3     1    31    1
     4     1    32    1
     5     2     3   ar
     6     3     4   ar
     7     3    33    1
     8     4     5   ar
     9     4    34    1
    10     5     6   ar
    11     6     7    1
    12     6     2   ar
    13     7     8    1
    14     7    35    1
    15     7    36    1
    16     8     9    1
    17     9    10    2
    18     9    11    1
    19    11    12   ar
    20    12    13   ar
    21    12    37    1
    22    13    14    1
    23    13    26   ar
    24    14    15    1
    25    14    38    1
    26    14    39    1
    27    15    16    2
    28    16    17    1
    29    17    18   am
    30    17    40    1
    31    18    19    2
    32    18    20    1
    33    20    21   ar
    34    21    22   ar
    35    21    41    1
    36    22    23   ar
    37    22    42    1
    38    23    24   ar
    39    23    43    1
    40    24    25   ar
    41    24    44    1
    42    25    15    1
    43    25    20   ar
    44    26    27   ar
    45    26    45    1
    46    27    28   ar
    47    27    46    1
    48    28    29    1
    49    28    11   ar
    50     5    47    1
@<TRIPOS>MOLECULE
*****
 47 50 0 0 0
SMALL
GASTEIGER

@<TRIPOS>ATOM
      1 C           3.9285   -1.5104    3.8103 C.3     1  UNL11      -0.0321
      2 C           4.4578   -2.5001    2.8267 C.ar    1  UNL11       0.0427
      3 C           4.6859   -3.8286    3.0875 C.ar    1  UNL11       0.1982
      4 N           5.1616   -4.3865    1.9608 N.ar    1  UNL11      -0.1309
      5 N           5.2259   -3.4368    1.0334 N.ar    1  UNL11      -0.1657
      6 C           4.8090   -2.2629    1.5031 C.ar    1  UNL11       0.1195
      7 C           4.6863   -0.9390    0.8822 C.3     1  UNL11       0.1381
      8 O           3.3993   -0.4063    0.8646 O.3     1  UNL11      -0.4547
      9 C           2.3913   -0.7071   -0.0244 C.2     1  UNL11       0.3424
     10 O           2.7240   -1.0494   -1.1792 O.2     1  UNL11      -0.2448
     11 C           0.9762   -0.6382    0.3384 C.ar    1  UNL11       0.0943
     12 C           0.0395   -0.3429   -0.6158 C.ar    1  UNL11      -0.0414
     13 C          -1.3239   -0.2582   -0.3918 C.ar    1  UNL11      -0.0404
     14 C          -2.2736    0.0949   -1.4723 C.3     1  UNL11       0.0211
     15 C          -2.8053   -1.0284   -2.2209 C.2     1  UNL11       0.1192
     16 N          -1.9478   -1.8422   -2.8741 N.2     1  UNL11      -0.0073
     17 N          -2.3018   -2.8624   -3.6165 N.am    1  UNL11      -0.0356
     18 C          -3.5850   -3.1986   -3.8000 C.2     1  UNL11       0.4383
     19 O          -3.9817   -4.1547   -4.4949 O.2     1  UNL11      -0.2116
     20 C          -4.5239   -2.3971   -3.1497 C.ar    1  UNL11       0.1004
     21 C          -5.8642   -2.6743   -3.2593 C.ar    1  UNL11      -0.0441
     22 C          -6.8068   -1.9023   -2.6047 C.ar    1  UNL11      -0.0608
     23 C          -6.3940   -0.8301   -1.8239 C.ar    1  UNL11      -0.0611
     24 C          -5.0566   -0.5366   -1.7038 C.ar    1  UNL11      -0.0518
     25 C          -4.1467   -1.3235   -2.3681 C.ar    1  UNL11       0.0192
     26 C          -1.7245   -0.4939    0.9013 C.ar    1  UNL11      -0.0555
     27 C          -0.7910   -0.7976    1.9025 C.ar    1  UNL11      -0.0254
     28 C           0.5460   -0.8680    1.6206 C.ar    1  UNL11       0.1374
     29 F           1.4139   -1.1636    2.6163 F       1  UNL11      -0.2046
     30 H           3.3607   -0.7264    3.2609 H       1  UNL11       0.0280
     31 H           3.2406   -2.0206    4.5212 H       1  UNL11       0.0280
     32 H           4.7458   -1.0145    4.3669 H       1  UNL11       0.0280
     33 H           4.5112   -4.3384    4.0429 H       1  UNL11       0.1402
     34 H           5.4134   -5.4002    1.9084 H       1  UNL11       0.4865
     35 H           5.3817   -0.2398    1.4082 H       1  UNL11       0.0765
     36 H           5.0474   -0.9554   -0.1810 H       1  UNL11       0.0765
     37 H           0.3729   -0.1570   -1.6459 H       1  UNL11       0.0629
     38 H          -1.8879    0.9283   -2.1022 H       1  UNL11       0.0379
     39 H          -3.1507    0.5875   -0.9369 H       1  UNL11       0.0379
     40 H          -1.5937   -3.4813   -4.1193 H       1  UNL11       0.4829
     41 H          -6.1396   -3.5180   -3.8763 H       1  UNL11       0.0627
     42 H          -7.8721   -2.1430   -2.7066 H       1  UNL11       0.0618
     43 H          -7.1248   -0.2235   -1.3062 H       1  UNL11       0.0618
     44 H          -4.6783    0.2839   -1.1110 H       1  UNL11       0.0624
     45 H          -2.7418   -0.4562    1.2478 H       1  UNL11       0.0621
     46 H          -1.1415   -0.9810    2.9328 H       1  UNL11       0.0646
     47 H           5.5427   -3.5833    0.1129 H       1  UNL11       0.2362
@<TRIPOS>BOND
     1     1     2    1
     2     1    30    1
     3     1    31    1
     4     1    32    1
     5     2     3   ar
     6     3     4   ar
     7     3    33    1
     8     4     5   ar
     9     4    34    1
    10     5     6   ar
    11     6     7    1
    12     6     2   ar
    13     7     8    1
    14     7    35    1
    15     7    36    1
    16     8     9    1
    17     9    10    2
    18     9    11    1
    19    11    12   ar
    20    12    13   ar
    21    12    37    1
    22    13    14    1
    23    13    26   ar
    24    14    15    1
    25    14    38    1
    26    14    39    1
    27    15    16    2
    28    16    17    1
    29    17    18   am
    30    17    40    1
    31    18    19    2
    32    18    20    1
    33    20    21   ar
    34    21    22   ar
    35    21    41    1
    36    22    23   ar
    37    22    42    1
    38    23    24   ar
    39    23    43    1
    40    24    25   ar
    41    24    44    1
    42    25    15    1
    43    25    20   ar
    44    26    27   ar
    45    26    45    1
    46    27    28   ar
    47    27    46    1
    48    28    29    1
    49    28    11   ar
    50     5    47    1
@<TRIPOS>MOLECULE
*****
 47 50 0 0 0
SMALL
GASTEIGER

@<TRIPOS>ATOM
      1 C           7.0977   -1.6918   -2.3818 C.3     1  UNL11      -0.0321
      2 C           6.3115   -2.3520   -1.2987 C.ar    1  UNL11       0.0427
      3 C           6.8025   -3.2920   -0.4268 C.ar    1  UNL11       0.1982
      4 N           5.7983   -3.6469    0.3934 N.ar    1  UNL11      -0.1309
      5 N           4.7222   -2.9508    0.0424 N.ar    1  UNL11      -0.1657
      6 C           4.9739   -2.1426   -0.9852 C.ar    1  UNL11       0.1195
      7 C           4.1341   -1.1890   -1.7194 C.3     1  UNL11       0.1381
      8 O           2.8170   -1.0914   -1.2766 O.3     1  UNL11      -0.4547
      9 C           2.3913   -0.7071   -0.0244 C.2     1  UNL11       0.3424
     10 O           3.2668   -0.4109    0.8166 O.2     1  UNL11      -0.2448
     11 C           0.9762   -0.6382    0.3384 C.ar    1  UNL11       0.0943
     12 C           0.0395   -0.3429   -0.6158 C.ar    1  UNL11      -0.0414
     13 C          -1.3239   -0.2582   -0.3918 C.ar    1  UNL11      -0.0404
     14 C          -2.2736    0.0949   -1.4723 C.3     1  UNL11       0.0211
     15 C          -3.0586    1.2927   -1.2398 C.2     1  UNL11       0.1192
     16 N          -3.4515    2.0317   -2.2999 N.2     1  UNL11      -0.0073
     17 N          -4.1261    3.1525   -2.2227 N.am    1  UNL11      -0.0356
     18 C          -4.4965    3.6817   -1.0496 C.2     1  UNL11       0.4383
     19 O          -5.1359    4.7434   -0.9138 O.2     1  UNL11      -0.2116
     20 C          -4.1223    2.9649    0.0874 C.ar    1  UNL11       0.1004
     21 C          -4.4743    3.4154    1.3358 C.ar    1  UNL11      -0.0441
     22 C          -4.1291    2.7064    2.4721 C.ar    1  UNL11      -0.0608
     23 C          -3.4160    1.5204    2.3513 C.ar    1  UNL11      -0.0611
     24 C          -3.0538    1.0548    1.1098 C.ar    1  UNL11      -0.0518
     25 C          -3.4121    1.7842    0.0017 C.ar    1  UNL11       0.0192
     26 C          -1.7245   -0.4939    0.9013 C.ar    1  UNL11      -0.0555
     27 C          -0.7910   -0.7976    1.9025 C.ar    1  UNL11      -0.0254
     28 C           0.5460   -0.8680    1.6206 C.ar    1  UNL11       0.1374
     29 F           1.4139   -1.1636    2.6163 F       1  UNL11      -0.2046
     30 H           6.6820   -0.6745   -2.5584 H       1  UNL11       0.0280
     31 H           8.1611   -1.5959   -2.0671 H       1  UNL11       0.0280
     32 H           7.0351   -2.2567   -3.3309 H       1  UNL11       0.0280
     33 H           7.8280   -3.6808   -0.4065 H       1  UNL11       0.1402
     34 H           5.9266   -4.3565    1.1510 H       1  UNL11       0.4865
     35 H           4.6258   -0.1861   -1.6789 H       1  UNL11       0.0765
     36 H           4.0932   -1.4434   -2.8123 H       1  UNL11       0.0765
     37 H           0.3729   -0.1570   -1.6459 H       1  UNL11       0.0629
     38 H          -2.8658   -0.7881   -1.8036 H       1  UNL11       0.0379
     39 H          -1.6161    0.2951   -2.3813 H       1  UNL11       0.0379
     40 H          -4.4166    3.7097   -3.0844 H       1  UNL11       0.4829
     41 H          -5.0290    4.3419    1.3823 H       1  UNL11       0.0627
     42 H          -4.4215    3.0855    3.4590 H       1  UNL11       0.0618
     43 H          -3.1452    0.9584    3.2349 H       1  UNL11       0.0618
     44 H          -2.4996    0.1399    0.9559 H       1  UNL11       0.0624
     45 H          -2.7418   -0.4562    1.2478 H       1  UNL11       0.0621
     46 H          -1.1415   -0.9810    2.9328 H       1  UNL11       0.0646
     47 H           3.8469   -3.0237    0.4872 H       1  UNL11       0.2362
@<TRIPOS>BOND
     1     1     2    1
     2     1    30    1
     3     1    31    1
     4     1    32    1
     5     2     3   ar
     6     3     4   ar
     7     3    33    1
     8     4     5   ar
     9     4    34    1
    10     5     6   ar
    11     6     7    1
    12     6     2   ar
    13     7     8    1
    14     7    35    1
    15     7    36    1
    16     8     9    1
    17     9    10    2
    18     9    11    1
    19    11    12   ar
    20    12    13   ar
    21    12    37    1
    22    13    14    1
    23    13    26   ar
    24    14    15    1
    25    14    38    1
    26    14    39    1
    27    15    16    2
    28    16    17    1
    29    17    18   am
    30    17    40    1
    31    18    19    2
    32    18    20    1
    33    20    21   ar
    34    21    22   ar
    35    21    41    1
    36    22    23   ar
    37    22    42    1
    38    23    24   ar
    39    23    43    1
    40    24    25   ar
    41    24    44    1
    42    25    15    1
    43    25    20   ar
    44    26    27   ar
    45    26    45    1
    46    27    28   ar
    47    27    46    1
    48    28    29    1
    49    28    11   ar
    50     5    47    1
@<TRIPOS>MOLECULE
*****
 47 50 0 0 0
SMALL
GASTEIGER

@<TRIPOS>ATOM
      1 C           7.7438   -0.8751   -0.0169 C.3     1  UNL11      -0.0321
      2 C           6.7312    0.2132   -0.1487 C.ar    1  UNL11       0.0427
      3 C           6.9924    1.4856   -0.5932 C.ar    1  UNL11       0.1982
      4 N           5.8349    2.1687   -0.5682 N.ar    1  UNL11      -0.1309
      5 N           4.8888    1.3481   -0.1239 N.ar    1  UNL11      -0.1657
      6 C           5.3758    0.1394    0.1489 C.ar    1  UNL11       0.1195
      7 C           4.7460   -1.0884    0.6482 C.3     1  UNL11       0.1381
      8 O           3.3773   -0.9994    0.8916 O.3     1  UNL11      -0.4547
      9 C           2.3913   -0.7071   -0.0244 C.2     1  UNL11       0.3424
     10 O           2.7444   -0.4965   -1.2044 O.2     1  UNL11      -0.2448
     11 C           0.9762   -0.6382    0.3384 C.ar    1  UNL11       0.0943
     12 C           0.0395   -0.3429   -0.6158 C.ar    1  UNL11      -0.0414
     13 C          -1.3239   -0.2582   -0.3918 C.ar    1  UNL11      -0.0404
     14 C          -2.2736    0.0949   -1.4723 C.3     1  UNL11       0.0211
     15 C          -3.0586    1.2927   -1.2398 C.2     1  UNL11       0.1192
     16 N          -3.3599    1.6394    0.0304 N.2     1  UNL11      -0.0073
     17 N          -4.0937    2.6702    0.3713 N.am    1  UNL11      -0.0356
     18 C          -4.6272    3.4967   -0.5374 C.2     1  UNL11       0.4383
     19 O          -5.3335    4.4897   -0.2740 O.2     1  UNL11      -0.2116
     20 C          -4.3520    3.1946   -1.8716 C.ar    1  UNL11       0.1004
     21 C          -4.8370    3.9953   -2.8761 C.ar    1  UNL11      -0.0441
     22 C          -4.5566    3.7219   -4.2025 C.ar    1  UNL11      -0.0608
     23 C          -3.7728    2.6215   -4.5261 C.ar    1  UNL11      -0.0611
     24 C          -3.2799    1.8080   -3.5339 C.ar    1  UNL11      -0.0518
     25 C          -3.5782    2.1079   -2.2265 C.ar    1  UNL11       0.0192
     26 C          -1.7245   -0.4939    0.9013 C.ar    1  UNL11      -0.0555
     27 C          -0.7910   -0.7976    1.9025 C.ar    1  UNL11      -0.0254
     28 C           0.5460   -0.8680    1.6206 C.ar    1  UNL11       0.1374
     29 F           1.4139   -1.1636    2.6163 F       1  UNL11      -0.2046
     30 H           7.2383   -1.8558   -0.1643 H       1  UNL11       0.0280
     31 H           8.5274   -0.7538   -0.7981 H       1  UNL11       0.0280
     32 H           8.2092   -0.8772    0.9867 H       1  UNL11       0.0280
     33 H           7.9693    1.8713   -0.9098 H       1  UNL11       0.1402
     34 H           5.7765    3.1702   -0.8640 H       1  UNL11       0.4865
     35 H           4.9513   -1.9091   -0.0822 H       1  UNL11       0.0765
     36 H           5.2261   -1.4298    1.6042 H       1  UNL11       0.0765
     37 H           0.3729   -0.1570   -1.6459 H       1  UNL11       0.0629
     38 H          -2.8658   -0.7881   -1.8036 H       1  UNL11       0.0379
     39 H          -1.6161    0.2951   -2.3813 H       1  UNL11       0.0379
     40 H          -4.3118    2.9104    1.3872 H       1  UNL11       0.4829
     41 H          -5.4414    4.8404   -2.5783 H       1  UNL11       0.0627
     42 H          -4.9546    4.3758   -4.9881 H       1  UNL11       0.0618
     43 H          -3.5462    2.4029   -5.5609 H       1  UNL11       0.0618
     44 H          -2.6658    0.9398   -3.7265 H       1  UNL11       0.0624
     45 H          -2.7418   -0.4562    1.2478 H       1  UNL11       0.0621
     46 H          -1.1415   -0.9810    2.9328 H       1  UNL11       0.0646
     47 H           3.9446    1.6025   -0.0105 H       1  UNL11       0.2362
@<TRIPOS>BOND
     1     1     2    1
     2     1    30    1
     3     1    31    1
     4     1    32    1
     5     2     3   ar
     6     3     4   ar
     7     3    33    1
     8     4     5   ar
     9     4    34    1
    10     5     6   ar
    11     6     7    1
    12     6     2   ar
    13     7     8    1
    14     7    35    1
    15     7    36    1
    16     8     9    1
    17     9    10    2
    18     9    11    1
    19    11    12   ar
    20    12    13   ar
    21    12    37    1
    22    13    14    1
    23    13    26   ar
    24    14    15    1
    25    14    38    1
    26    14    39    1
    27    15    16    2
    28    16    17    1
    29    17    18   am
    30    17    40    1
    31    18    19    2
    32    18    20    1
    33    20    21   ar
    34    21    22   ar
    35    21    41    1
    36    22    23   ar
    37    22    42    1
    38    23    24   ar
    39    23    43    1
    40    24    25   ar
    41    24    44    1
    42    25    15    1
    43    25    20   ar
    44    26    27   ar
    45    26    45    1
    46    27    28   ar
    47    27    46    1
    48    28    29    1
    49    28    11   ar
    50     5    47    1
@<TRIPOS>MOLECULE
*****
 47 50 0 0 0
SMALL
GASTEIGER

@<TRIPOS>ATOM
      1 C           1.9032    2.7803   -2.3294 C.3     1  UNL11      -0.0321
      2 C           2.6382    3.0957   -1.0694 C.ar    1  UNL11       0.0427
      3 C           2.4978    4.2509   -0.3409 C.ar    1  UNL11       0.1982
      4 N           3.3225    4.1649    0.7172 N.ar    1  UNL11      -0.1309
      5 N           3.9521    2.9967    0.6473 N.ar    1  UNL11      -0.1657
      6 C           3.5755    2.2993   -0.4224 C.ar    1  UNL11       0.1195
      7 C           3.9679    0.9785   -0.9275 C.3     1  UNL11       0.1381
      8 O           2.9339    0.0516   -1.0377 O.3     1  UNL11      -0.4547
      9 C           2.3913   -0.7071   -0.0244 C.2     1  UNL11       0.3424
     10 O           3.1578   -1.4763    0.5939 O.2     1  UNL11      -0.2448
     11 C           0.9762   -0.6382    0.3384 C.ar    1  UNL11       0.0943
     12 C           0.0395   -0.3429   -0.6158 C.ar    1  UNL11      -0.0414
     13 C          -1.3239   -0.2582   -0.3918 C.ar    1  UNL11      -0.0404
     14 C          -2.2736    0.0949   -1.4723 C.3     1  UNL11       0.0211
     15 C          -2.8053   -1.0284   -2.2209 C.2     1  UNL11       0.1192
     16 N          -3.5187   -1.9701   -1.5663 N.2     1  UNL11      -0.0073
     17 N          -4.0159   -3.0503   -2.1170 N.am    1  UNL11      -0.0356
     18 C          -3.8553   -3.3255   -3.4177 C.2     1  UNL11       0.4383
     19 O          -4.3022   -4.3357   -3.9958 O.2     1  UNL11      -0.2116
     20 C          -3.1272   -2.3895   -4.1530 C.ar    1  UNL11       0.1004
     21 C          -2.9266   -2.5722   -5.4990 C.ar    1  UNL11      -0.0441
     22 C          -2.2249   -1.6440   -6.2467 C.ar    1  UNL11      -0.0608
     23 C          -1.7146   -0.5091   -5.6292 C.ar    1  UNL11      -0.0611
     24 C          -1.9043   -0.3102   -4.2824 C.ar    1  UNL11      -0.0518
     25 C          -2.6055   -1.2526   -3.5692 C.ar    1  UNL11       0.0192
     26 C          -1.7245   -0.4939    0.9013 C.ar    1  UNL11      -0.0555
     27 C          -0.7910   -0.7976    1.9025 C.ar    1  UNL11      -0.0254
     28 C           0.5460   -0.8680    1.6206 C.ar    1  UNL11       0.1374
     29 F           1.4139   -1.1636    2.6163 F       1  UNL11      -0.2046
     30 H           1.7808    1.6768   -2.4072 H       1  UNL11       0.0280
     31 H           0.8957    3.2527   -2.3031 H       1  UNL11       0.0280
     32 H           2.4588    3.1268   -3.2210 H       1  UNL11       0.0280
     33 H           1.8331    5.0895   -0.5818 H       1  UNL11       0.1402
     34 H           3.3954    4.9305    1.4260 H       1  UNL11       0.4865
     35 H           4.4643    1.1164   -1.9193 H       1  UNL11       0.0765
     36 H           4.7553    0.5134   -0.2758 H       1  UNL11       0.0765
     37 H           0.3729   -0.1570   -1.6459 H       1  UNL11       0.0629
     38 H          -1.8879    0.9283   -2.1022 H       1  UNL11       0.0379
     39 H          -3.1507    0.5875   -0.9369 H       1  UNL11       0.0379
     40 H          -4.5729   -3.7733   -1.5651 H       1  UNL11       0.4829
     41 H          -3.3418   -3.4686   -5.9375 H       1  UNL11       0.0627
     42 H          -2.0774   -1.8109   -7.3208 H       1  UNL11       0.0618
     43 H          -1.1675    0.2231   -6.2076 H       1  UNL11       0.0618
     44 H          -1.5306    0.5526   -3.7499 H       1  UNL11       0.0624
     45 H          -2.7418   -0.4562    1.2478 H       1  UNL11       0.0621
     46 H          -1.1415   -0.9810    2.9328 H       1  UNL11       0.0646
     47 H           4.6150    2.6855    1.3052 H       1  UNL11       0.2362
@<TRIPOS>BOND
     1     1     2    1
     2     1    30    1
     3     1    31    1
     4     1    32    1
     5     2     3   ar
     6     3     4   ar
     7     3    33    1
     8     4     5   ar
     9     4    34    1
    10     5     6   ar
    11     6     7    1
    12     6     2   ar
    13     7     8    1
    14     7    35    1
    15     7    36    1
    16     8     9    1
    17     9    10    2
    18     9    11    1
    19    11    12   ar
    20    12    13   ar
    21    12    37    1
    22    13    14    1
    23    13    26   ar
    24    14    15    1
    25    14    38    1
    26    14    39    1
    27    15    16    2
    28    16    17    1
    29    17    18   am
    30    17    40    1
    31    18    19    2
    32    18    20    1
    33    20    21   ar
    34    21    22   ar
    35    21    41    1
    36    22    23   ar
    37    22    42    1
    38    23    24   ar
    39    23    43    1
    40    24    25   ar
    41    24    44    1
    42    25    15    1
    43    25    20   ar
    44    26    27   ar
    45    26    45    1
    46    27    28   ar
    47    27    46    1
    48    28    29    1
    49    28    11   ar
    50     5    47    1
@<TRIPOS>MOLECULE
*****
 47 50 0 0 0
SMALL
GASTEIGER

@<TRIPOS>ATOM
      1 C           2.4236    0.5209    3.1322 C.3     1  UNL11      -0.0321
      2 C           3.4741    1.5503    2.8791 C.ar    1  UNL11       0.0427
      3 C           3.7368    2.6269    3.6896 C.ar    1  UNL11       0.1982
      4 N           4.7432    3.3195    3.1290 N.ar    1  UNL11      -0.1309
      5 N           5.0927    2.6939    2.0099 N.ar    1  UNL11      -0.1657
      6 C           4.3531    1.6062    1.8041 C.ar    1  UNL11       0.1195
      7 C           4.3553    0.5988    0.7370 C.3     1  UNL11       0.1381
      8 O           3.3993   -0.4063    0.8646 O.3     1  UNL11      -0.4547
      9 C           2.3913   -0.7071   -0.0244 C.2     1  UNL11       0.3424
     10 O           2.7240   -1.0494   -1.1792 O.2     1  UNL11      -0.2448
     11 C           0.9762   -0.6382    0.3384 C.ar    1  UNL11       0.0943
     12 C           0.0395   -0.3429   -0.6158 C.ar    1  UNL11      -0.0414
     13 C          -1.3239   -0.2582   -0.3918 C.ar    1  UNL11      -0.0404
     14 C          -2.2736    0.0949   -1.4723 C.3     1  UNL11       0.0211
     15 C          -3.6676    0.1582   -1.0753 C.2     1  UNL11       0.1192
     16 N          -4.5558   -0.6619   -1.6775 N.2     1  UNL11      -0.0073
     17 N          -5.8445   -0.6740   -1.4400 N.am    1  UNL11      -0.0356
     18 C          -6.4132    0.1518   -0.5523 C.2     1  UNL11       0.4383
     19 O          -7.6306    0.1877   -0.2862 O.2     1  UNL11      -0.2116
     20 C          -5.5485    1.0258    0.1075 C.ar    1  UNL11       0.1004
     21 C          -6.0335    1.8969    1.0516 C.ar    1  UNL11      -0.0441
     22 C          -5.1874    2.7555    1.7296 C.ar    1  UNL11      -0.0608
     23 C          -3.8261    2.7383    1.4533 C.ar    1  UNL11      -0.0611
     24 C          -3.3228    1.8741    0.5104 C.ar    1  UNL11      -0.0518
     25 C          -4.1914    1.0350   -0.1452 C.ar    1  UNL11       0.0192
     26 C          -1.7245   -0.4939    0.9013 C.ar    1  UNL11      -0.0555
     27 C          -0.7910   -0.7976    1.9025 C.ar    1  UNL11      -0.0254
     28 C           0.5460   -0.8680    1.6206 C.ar    1  UNL11       0.1374
     29 F           1.4139   -1.1636    2.6163 F       1  UNL11      -0.2046
     30 H           2.7522   -0.4447    2.6868 H       1  UNL11       0.0280
     31 H           2.2904    0.3840    4.2288 H       1  UNL11       0.0280
     32 H           1.4597    0.8019    2.6676 H       1  UNL11       0.0280
     33 H           3.2173    2.8740    4.6236 H       1  UNL11       0.1402
     34 H           5.1257    4.1904    3.5640 H       1  UNL11       0.4865
     35 H           4.2282    1.1247   -0.2410 H       1  UNL11       0.0765
     36 H           5.3542    0.0915    0.6611 H       1  UNL11       0.0765
     37 H           0.3729   -0.1570   -1.6459 H       1  UNL11       0.0629
     38 H          -2.0832   -0.4969   -2.3962 H       1  UNL11       0.0379
     39 H          -1.9678    1.1443   -1.7946 H       1  UNL11       0.0379
     40 H          -6.5153   -1.3363   -1.9388 H       1  UNL11       0.4829
     41 H          -7.0986    1.8754    1.2346 H       1  UNL11       0.0627
     42 H          -5.5974    3.4425    2.4800 H       1  UNL11       0.0618
     43 H          -3.1573    3.4043    1.9816 H       1  UNL11       0.0618
     44 H          -2.2743    1.8171    0.2548 H       1  UNL11       0.0624
     45 H          -2.7418   -0.4562    1.2478 H       1  UNL11       0.0621
     46 H          -1.1415   -0.9810    2.9328 H       1  UNL11       0.0646
     47 H           5.8099    2.9972    1.4075 H       1  UNL11       0.2362
@<TRIPOS>BOND
     1     1     2    1
     2     1    30    1
     3     1    31    1
     4     1    32    1
     5     2     3   ar
     6     3     4   ar
     7     3    33    1
     8     4     5   ar
     9     4    34    1
    10     5     6   ar
    11     6     7    1
    12     6     2   ar
    13     7     8    1
    14     7    35    1
    15     7    36    1
    16     8     9    1
    17     9    10    2
    18     9    11    1
    19    11    12   ar
    20    12    13   ar
    21    12    37    1
    22    13    14    1
    23    13    26   ar
    24    14    15    1
    25    14    38    1
    26    14    39    1
    27    15    16    2
    28    16    17    1
    29    17    18   am
    30    17    40    1
    31    18    19    2
    32    18    20    1
    33    20    21   ar
    34    21    22   ar
    35    21    41    1
    36    22    23   ar
    37    22    42    1
    38    23    24   ar
    39    23    43    1
    40    24    25   ar
    41    24    44    1
    42    25    15    1
    43    25    20   ar
    44    26    27   ar
    45    26    45    1
    46    27    28   ar
    47    27    46    1
    48    28    29    1
    49    28    11   ar
    50     5    47    1
@<TRIPOS>MOLECULE
*****
 47 50 0 0 0
SMALL
GASTEIGER

@<TRIPOS>ATOM
      1 C           2.4007    2.0726    0.5781 C.3     1  UNL11      -0.0321
      2 C           2.5820    2.5439   -0.8263 C.ar    1  UNL11       0.0427
      3 C           2.1711    3.7612   -1.3103 C.ar    1  UNL11       0.1982
      4 N           2.5079    3.8144   -2.6106 N.ar    1  UNL11      -0.1309
      5 N           3.1073    2.6700   -2.9218 N.ar    1  UNL11      -0.1657
      6 C           3.1820    1.8537   -1.8727 C.ar    1  UNL11       0.1195
      7 C           3.7452    0.5088   -1.7070 C.3     1  UNL11       0.1381
      8 O           2.8399   -0.4707   -1.3049 O.3     1  UNL11      -0.4547
      9 C           2.3913   -0.7071   -0.0244 C.2     1  UNL11       0.3424
     10 O           3.2453   -0.9895    0.8430 O.2     1  UNL11      -0.2448
     11 C           0.9762   -0.6382    0.3384 C.ar    1  UNL11       0.0943
     12 C           0.0395   -0.3429   -0.6158 C.ar    1  UNL11      -0.0414
     13 C          -1.3239   -0.2582   -0.3918 C.ar    1  UNL11      -0.0404
     14 C          -2.2736    0.0949   -1.4723 C.3     1  UNL11       0.0211
     15 C          -2.8053   -1.0284   -2.2209 C.2     1  UNL11       0.1192
     16 N          -3.5187   -1.9701   -1.5663 N.2     1  UNL11      -0.0073
     17 N          -4.0159   -3.0503   -2.1170 N.am    1  UNL11      -0.0356
     18 C          -3.8553   -3.3255   -3.4177 C.2     1  UNL11       0.4383
     19 O          -4.3022   -4.3357   -3.9958 O.2     1  UNL11      -0.2116
     20 C          -3.1272   -2.3895   -4.1530 C.ar    1  UNL11       0.1004
     21 C          -2.9266   -2.5722   -5.4990 C.ar    1  UNL11      -0.0441
     22 C          -2.2249   -1.6440   -6.2467 C.ar    1  UNL11      -0.0608
     23 C          -1.7146   -0.5091   -5.6292 C.ar    1  UNL11      -0.0611
     24 C          -1.9043   -0.3102   -4.2824 C.ar    1  UNL11      -0.0518
     25 C          -2.6055   -1.2526   -3.5692 C.ar    1  UNL11       0.0192
     26 C          -1.7245   -0.4939    0.9013 C.ar    1  UNL11      -0.0555
     27 C          -0.7910   -0.7976    1.9025 C.ar    1  UNL11      -0.0254
     28 C           0.5460   -0.8680    1.6206 C.ar    1  UNL11       0.1374
     29 F           1.4139   -1.1636    2.6163 F       1  UNL11      -0.2046
     30 H           3.2286    1.3733    0.8319 H       1  UNL11       0.0280
     31 H           2.4388    2.9417    1.2723 H       1  UNL11       0.0280
     32 H           1.4444    1.5310    0.7042 H       1  UNL11       0.0280
     33 H           1.6604    4.5450   -0.7374 H       1  UNL11       0.1402
     34 H           2.2976    4.6501   -3.2032 H       1  UNL11       0.4865
     35 H           4.2278    0.2103   -2.6699 H       1  UNL11       0.0765
     36 H           4.5805    0.5092   -0.9566 H       1  UNL11       0.0765
     37 H           0.3729   -0.1570   -1.6459 H       1  UNL11       0.0629
     38 H          -1.8879    0.9283   -2.1022 H       1  UNL11       0.0379
     39 H          -3.1507    0.5875   -0.9369 H       1  UNL11       0.0379
     40 H          -4.5729   -3.7733   -1.5651 H       1  UNL11       0.4829
     41 H          -3.3418   -3.4686   -5.9375 H       1  UNL11       0.0627
     42 H          -2.0774   -1.8109   -7.3208 H       1  UNL11       0.0618
     43 H          -1.1675    0.2231   -6.2076 H       1  UNL11       0.0618
     44 H          -1.5306    0.5526   -3.7499 H       1  UNL11       0.0624
     45 H          -2.7418   -0.4562    1.2478 H       1  UNL11       0.0621
     46 H          -1.1415   -0.9810    2.9328 H       1  UNL11       0.0646
     47 H           3.4532    2.4526   -3.8175 H       1  UNL11       0.2362
@<TRIPOS>BOND
     1     1     2    1
     2     1    30    1
     3     1    31    1
     4     1    32    1
     5     2     3   ar
     6     3     4   ar
     7     3    33    1
     8     4     5   ar
     9     4    34    1
    10     5     6   ar
    11     6     7    1
    12     6     2   ar
    13     7     8    1
    14     7    35    1
    15     7    36    1
    16     8     9    1
    17     9    10    2
    18     9    11    1
    19    11    12   ar
    20    12    13   ar
    21    12    37    1
    22    13    14    1
    23    13    26   ar
    24    14    15    1
    25    14    38    1
    26    14    39    1
    27    15    16    2
    28    16    17    1
    29    17    18   am
    30    17    40    1
    31    18    19    2
    32    18    20    1
    33    20    21   ar
    34    21    22   ar
    35    21    41    1
    36    22    23   ar
    37    22    42    1
    38    23    24   ar
    39    23    43    1
    40    24    25   ar
    41    24    44    1
    42    25    15    1
    43    25    20   ar
    44    26    27   ar
    45    26    45    1
    46    27    28   ar
    47    27    46    1
    48    28    29    1
    49    28    11   ar
    50     5    47    1
@<TRIPOS>MOLECULE
*****
 47 50 0 0 0
SMALL
GASTEIGER

@<TRIPOS>ATOM
      1 C           4.0605   -0.1007   -2.2460 C.3     1  UNL11      -0.0321
      2 C           5.3381   -0.0339   -1.4776 C.ar    1  UNL11       0.0427
      3 C           6.5857   -0.2767   -1.9965 C.ar    1  UNL11       0.1982
      4 N           7.4755   -0.1212   -1.0009 N.ar    1  UNL11      -0.1309
      5 N           6.8028    0.2071    0.0971 N.ar    1  UNL11      -0.1657
      6 C           5.4931    0.2760   -0.1317 C.ar    1  UNL11       0.1195
      7 C           4.3553    0.5988    0.7370 C.3     1  UNL11       0.1381
      8 O           3.3993   -0.4063    0.8646 O.3     1  UNL11      -0.4547
      9 C           2.3913   -0.7071   -0.0244 C.2     1  UNL11       0.3424
     10 O           2.7240   -1.0494   -1.1792 O.2     1  UNL11      -0.2448
     11 C           0.9762   -0.6382    0.3384 C.ar    1  UNL11       0.0943
     12 C           0.0395   -0.3429   -0.6158 C.ar    1  UNL11      -0.0414
     13 C          -1.3239   -0.2582   -0.3918 C.ar    1  UNL11      -0.0404
     14 C          -2.2736    0.0949   -1.4723 C.3     1  UNL11       0.0211
     15 C          -3.2813   -0.9076   -1.7631 C.2     1  UNL11       0.1192
     16 N          -4.1765   -0.6675   -2.7456 N.2     1  UNL11      -0.0073
     17 N          -5.1577   -1.4703   -3.0773 N.am    1  UNL11      -0.0356
     18 C          -5.3671   -2.6357   -2.4517 C.2     1  UNL11       0.4383
     19 O          -6.2828   -3.4378   -2.7211 O.2     1  UNL11      -0.2116
     20 C          -4.4742   -2.9452   -1.4252 C.ar    1  UNL11       0.1004
     21 C          -4.5935   -4.1281   -0.7382 C.ar    1  UNL11      -0.0441
     22 C          -3.7046   -4.4596    0.2682 C.ar    1  UNL11      -0.0608
     23 C          -2.6748   -3.5848    0.5906 C.ar    1  UNL11      -0.0611
     24 C          -2.5407   -2.3956   -0.0854 C.ar    1  UNL11      -0.0518
     25 C          -3.4415   -2.0969   -1.0792 C.ar    1  UNL11       0.0192
     26 C          -1.7245   -0.4939    0.9013 C.ar    1  UNL11      -0.0555
     27 C          -0.7910   -0.7976    1.9025 C.ar    1  UNL11      -0.0254
     28 C           0.5460   -0.8680    1.6206 C.ar    1  UNL11       0.1374
     29 F           1.4139   -1.1636    2.6163 F       1  UNL11      -0.2046
     30 H           3.3329    0.6112   -1.7958 H       1  UNL11       0.0280
     31 H           4.2441    0.1940   -3.3036 H       1  UNL11       0.0280
     32 H           3.6167   -1.1133   -2.2085 H       1  UNL11       0.0280
     33 H           6.8115   -0.5486   -3.0349 H       1  UNL11       0.1402
     34 H           8.5021   -0.2545   -1.1500 H       1  UNL11       0.4865
     35 H           4.7519    0.8785    1.7438 H       1  UNL11       0.0765
     36 H           3.8181    1.5166    0.3763 H       1  UNL11       0.0765
     37 H           0.3729   -0.1570   -1.6459 H       1  UNL11       0.0629
     38 H          -1.7464    0.4931   -2.3687 H       1  UNL11       0.0379
     39 H          -2.8193    1.0183   -1.0874 H       1  UNL11       0.0379
     40 H          -5.8470   -1.2440   -3.8590 H       1  UNL11       0.4829
     41 H          -5.4087   -4.7782   -1.0229 H       1  UNL11       0.0627
     42 H          -3.8194   -5.4104    0.8032 H       1  UNL11       0.0618
     43 H          -1.9736   -3.8383    1.3742 H       1  UNL11       0.0618
     44 H          -1.7601   -1.6778    0.1224 H       1  UNL11       0.0624
     45 H          -2.7418   -0.4562    1.2478 H       1  UNL11       0.0621
     46 H          -1.1415   -0.9810    2.9328 H       1  UNL11       0.0646
     47 H           7.2213    0.3782    0.9716 H       1  UNL11       0.2362
@<TRIPOS>BOND
     1     1     2    1
     2     1    30    1
     3     1    31    1
     4     1    32    1
     5     2     3   ar
     6     3     4   ar
     7     3    33    1
     8     4     5   ar
     9     4    34    1
    10     5     6   ar
    11     6     7    1
    12     6     2   ar
    13     7     8    1
    14     7    35    1
    15     7    36    1
    16     8     9    1
    17     9    10    2
    18     9    11    1
    19    11    12   ar
    20    12    13   ar
    21    12    37    1
    22    13    14    1
    23    13    26   ar
    24    14    15    1
    25    14    38    1
    26    14    39    1
    27    15    16    2
    28    16    17    1
    29    17    18   am
    30    17    40    1
    31    18    19    2
    32    18    20    1
    33    20    21   ar
    34    21    22   ar
    35    21    41    1
    36    22    23   ar
    37    22    42    1
    38    23    24   ar
    39    23    43    1
    40    24    25   ar
    41    24    44    1
    42    25    15    1
    43    25    20   ar
    44    26    27   ar
    45    26    45    1
    46    27    28   ar
    47    27    46    1
    48    28    29    1
    49    28    11   ar
    50     5    47    1
@<TRIPOS>MOLECULE
*****
 47 50 0 0 0
SMALL
GASTEIGER

@<TRIPOS>ATOM
      1 C           6.2196   -0.3816   -1.9507 C.3     1  UNL11      -0.0321
      2 C           6.1412    0.1259   -0.5495 C.ar    1  UNL11       0.0427
      3 C           6.7675    1.2547   -0.0819 C.ar    1  UNL11       0.1982
      4 N           6.4605    1.3777    1.2211 N.ar    1  UNL11      -0.1309
      5 N           5.6709    0.3607    1.5498 N.ar    1  UNL11      -0.1657
      6 C           5.4402   -0.4379    0.5098 C.ar    1  UNL11       0.1195
      7 C           4.6450   -1.6625    0.3634 C.3     1  UNL11       0.1381
      8 O           3.2848   -1.5251    0.6308 O.3     1  UNL11      -0.4547
      9 C           2.3913   -0.7071   -0.0244 C.2     1  UNL11       0.3424
     10 O           2.8307   -0.0065   -0.9612 O.2     1  UNL11      -0.2448
     11 C           0.9762   -0.6382    0.3384 C.ar    1  UNL11       0.0943
     12 C           0.0395   -0.3429   -0.6158 C.ar    1  UNL11      -0.0414
     13 C          -1.3239   -0.2582   -0.3918 C.ar    1  UNL11      -0.0404
     14 C          -2.2736    0.0949   -1.4723 C.3     1  UNL11       0.0211
     15 C          -1.6720    0.3425   -2.7691 C.2     1  UNL11       0.1192
     16 N          -1.8358    1.5535   -3.3443 N.2     1  UNL11      -0.0073
     17 N          -1.3803    1.8889   -4.5263 N.am    1  UNL11      -0.0356
     18 C          -0.6912    1.0343   -5.2932 C.2     1  UNL11       0.4383
     19 O          -0.2357    1.2951   -6.4240 O.2     1  UNL11      -0.2116
     20 C          -0.4852   -0.2367   -4.7554 C.ar    1  UNL11       0.1004
     21 C           0.2285   -1.1769   -5.4568 C.ar    1  UNL11      -0.0441
     22 C           0.4594   -2.4346   -4.9297 C.ar    1  UNL11      -0.0608
     23 C          -0.0368   -2.7537   -3.6720 C.ar    1  UNL11      -0.0611
     24 C          -0.7546   -1.8257   -2.9560 C.ar    1  UNL11      -0.0518
     25 C          -0.9664   -0.5859   -3.5096 C.ar    1  UNL11       0.0192
     26 C          -1.7245   -0.4939    0.9013 C.ar    1  UNL11      -0.0555
     27 C          -0.7910   -0.7976    1.9025 C.ar    1  UNL11      -0.0254
     28 C           0.5460   -0.8680    1.6206 C.ar    1  UNL11       0.1374
     29 F           1.4139   -1.1636    2.6163 F       1  UNL11      -0.2046
     30 H           5.2777   -0.9246   -2.1892 H       1  UNL11       0.0280
     31 H           6.3286    0.4747   -2.6533 H       1  UNL11       0.0280
     32 H           7.0629   -1.0857   -2.0808 H       1  UNL11       0.0280
     33 H           7.4027    1.9304   -0.6677 H       1  UNL11       0.1402
     34 H           6.8229    2.1675    1.8031 H       1  UNL11       0.4865
     35 H           4.7927   -2.0540   -0.6730 H       1  UNL11       0.0765
     36 H           5.0290   -2.4772    1.0341 H       1  UNL11       0.0765
     37 H           0.3729   -0.1570   -1.6459 H       1  UNL11       0.0629
     38 H          -2.9988    0.8735   -1.1437 H       1  UNL11       0.0379
     39 H          -2.9417   -0.8219   -1.5811 H       1  UNL11       0.0379
     40 H          -1.5325    2.8566   -4.9483 H       1  UNL11       0.4829
     41 H           0.5960   -0.8849   -6.4305 H       1  UNL11       0.0627
     42 H           1.0326   -3.1694   -5.5082 H       1  UNL11       0.0618
     43 H           0.1424   -3.7340   -3.2514 H       1  UNL11       0.0618
     44 H          -1.1639   -2.0182   -1.9745 H       1  UNL11       0.0624
     45 H          -2.7418   -0.4562    1.2478 H       1  UNL11       0.0621
     46 H          -1.1415   -0.9810    2.9328 H       1  UNL11       0.0646
     47 H           5.3021    0.2156    2.4510 H       1  UNL11       0.2362
@<TRIPOS>BOND
     1     1     2    1
     2     1    30    1
     3     1    31    1
     4     1    32    1
     5     2     3   ar
     6     3     4   ar
     7     3    33    1
     8     4     5   ar
     9     4    34    1
    10     5     6   ar
    11     6     7    1
    12     6     2   ar
    13     7     8    1
    14     7    35    1
    15     7    36    1
    16     8     9    1
    17     9    10    2
    18     9    11    1
    19    11    12   ar
    20    12    13   ar
    21    12    37    1
    22    13    14    1
    23    13    26   ar
    24    14    15    1
    25    14    38    1
    26    14    39    1
    27    15    16    2
    28    16    17    1
    29    17    18   am
    30    17    40    1
    31    18    19    2
    32    18    20    1
    33    20    21   ar
    34    21    22   ar
    35    21    41    1
    36    22    23   ar
    37    22    42    1
    38    23    24   ar
    39    23    43    1
    40    24    25   ar
    41    24    44    1
    42    25    15    1
    43    25    20   ar
    44    26    27   ar
    45    26    45    1
    46    27    28   ar
    47    27    46    1
    48    28    29    1
    49    28    11   ar
    50     5    47    1
@<TRIPOS>MOLECULE
*****
 47 50 0 0 0
SMALL
GASTEIGER

@<TRIPOS>ATOM
      1 C           5.7626   -4.0053    1.5924 C.3     1  UNL11      -0.0321
      2 C           4.6809   -3.4472    2.4560 C.ar    1  UNL11       0.0427
      3 C           4.1173   -4.0898    3.5304 C.ar    1  UNL11       0.1982
      4 N           3.1836   -3.2721    4.0468 N.ar    1  UNL11      -0.1309
      5 N           3.1691   -2.1610    3.3181 N.ar    1  UNL11      -0.1657
      6 C           4.0621   -2.2091    2.3318 C.ar    1  UNL11       0.1195
      7 C           4.4260   -1.2499    1.2825 C.3     1  UNL11       0.1381
      8 O           3.3993   -0.4063    0.8646 O.3     1  UNL11      -0.4547
      9 C           2.3913   -0.7071   -0.0244 C.2     1  UNL11       0.3424
     10 O           2.7240   -1.0494   -1.1792 O.2     1  UNL11      -0.2448
     11 C           0.9762   -0.6382    0.3384 C.ar    1  UNL11       0.0943
     12 C           0.0395   -0.3429   -0.6158 C.ar    1  UNL11      -0.0414
     13 C          -1.3239   -0.2582   -0.3918 C.ar    1  UNL11      -0.0404
     14 C          -2.2736    0.0949   -1.4723 C.3     1  UNL11       0.0211
     15 C          -3.2813   -0.9076   -1.7631 C.2     1  UNL11       0.1192
     16 N          -2.9861   -2.2092   -1.5559 N.2     1  UNL11      -0.0073
     17 N          -3.7904   -3.2103   -1.8170 N.am    1  UNL11      -0.0356
     18 C          -5.0141   -3.0262   -2.3290 C.2     1  UNL11       0.4383
     19 O          -5.8210   -3.9374   -2.5994 O.2     1  UNL11      -0.2116
     20 C          -5.3824   -1.7014   -2.5659 C.ar    1  UNL11       0.1004
     21 C          -6.6257   -1.4089   -3.0700 C.ar    1  UNL11      -0.0441
     22 C          -7.0143   -0.1001   -3.2914 C.ar    1  UNL11      -0.0608
     23 C          -6.1357    0.9357   -3.0001 C.ar    1  UNL11      -0.0611
     24 C          -4.8865    0.6618   -2.4963 C.ar    1  UNL11      -0.0518
     25 C          -4.5322   -0.6496   -2.2890 C.ar    1  UNL11       0.0192
     26 C          -1.7245   -0.4939    0.9013 C.ar    1  UNL11      -0.0555
     27 C          -0.7910   -0.7976    1.9025 C.ar    1  UNL11      -0.0254
     28 C           0.5460   -0.8680    1.6206 C.ar    1  UNL11       0.1374
     29 F           1.4139   -1.1636    2.6163 F       1  UNL11      -0.2046
     30 H           6.3719   -3.1645    1.1916 H       1  UNL11       0.0280
     31 H           6.4199   -4.6688    2.1978 H       1  UNL11       0.0280
     32 H           5.3478   -4.5669    0.7343 H       1  UNL11       0.0280
     33 H           4.3827   -5.0889    3.8974 H       1  UNL11       0.1402
     34 H           2.6114   -3.5414    4.8799 H       1  UNL11       0.4865
     35 H           5.2927   -0.6452    1.6463 H       1  UNL11       0.0765
     36 H           4.8087   -1.7765    0.3676 H       1  UNL11       0.0765
     37 H           0.3729   -0.1570   -1.6459 H       1  UNL11       0.0629
     38 H          -1.7464    0.4931   -2.3687 H       1  UNL11       0.0379
     39 H          -2.8193    1.0183   -1.0874 H       1  UNL11       0.0379
     40 H          -3.5197   -4.2268   -1.6414 H       1  UNL11       0.4829
     41 H          -7.2763   -2.2457   -3.2812 H       1  UNL11       0.0627
     42 H          -8.0127    0.1095   -3.6944 H       1  UNL11       0.0618
     43 H          -6.4333    1.9621   -3.1673 H       1  UNL11       0.0618
     44 H          -4.1628    1.4262   -2.2518 H       1  UNL11       0.0624
     45 H          -2.7418   -0.4562    1.2478 H       1  UNL11       0.0621
     46 H          -1.1415   -0.9810    2.9328 H       1  UNL11       0.0646
     47 H           2.5719   -1.3967    3.4867 H       1  UNL11       0.2362
@<TRIPOS>BOND
     1     1     2    1
     2     1    30    1
     3     1    31    1
     4     1    32    1
     5     2     3   ar
     6     3     4   ar
     7     3    33    1
     8     4     5   ar
     9     4    34    1
    10     5     6   ar
    11     6     7    1
    12     6     2   ar
    13     7     8    1
    14     7    35    1
    15     7    36    1
    16     8     9    1
    17     9    10    2
    18     9    11    1
    19    11    12   ar
    20    12    13   ar
    21    12    37    1
    22    13    14    1
    23    13    26   ar
    24    14    15    1
    25    14    38    1
    26    14    39    1
    27    15    16    2
    28    16    17    1
    29    17    18   am
    30    17    40    1
    31    18    19    2
    32    18    20    1
    33    20    21   ar
    34    21    22   ar
    35    21    41    1
    36    22    23   ar
    37    22    42    1
    38    23    24   ar
    39    23    43    1
    40    24    25   ar
    41    24    44    1
    42    25    15    1
    43    25    20   ar
    44    26    27   ar
    45    26    45    1
    46    27    28   ar
    47    27    46    1
    48    28    29    1
    49    28    11   ar
    50     5    47    1
@<TRIPOS>MOLECULE
*****
 47 50 0 0 0
SMALL
GASTEIGER

@<TRIPOS>ATOM
      1 C           5.9517    3.3009   -0.5455 C.3     1  UNL11      -0.0321
      2 C           4.4871    3.3357   -0.2606 C.ar    1  UNL11       0.0427
      3 C           3.8012    4.4241    0.2188 C.ar    1  UNL11       0.1982
      4 N           2.5119    4.0657    0.3468 N.ar    1  UNL11      -0.1309
      5 N           2.4023    2.7992   -0.0401 N.ar    1  UNL11      -0.1657
      6 C           3.5755    2.2993   -0.4224 C.ar    1  UNL11       0.1195
      7 C           3.9679    0.9785   -0.9275 C.3     1  UNL11       0.1381
      8 O           2.9339    0.0516   -1.0377 O.3     1  UNL11      -0.4547
      9 C           2.3913   -0.7071   -0.0244 C.2     1  UNL11       0.3424
     10 O           3.1578   -1.4763    0.5939 O.2     1  UNL11      -0.2448
     11 C           0.9762   -0.6382    0.3384 C.ar    1  UNL11       0.0943
     12 C           0.0395   -0.3429   -0.6158 C.ar    1  UNL11      -0.0414
     13 C          -1.3239   -0.2582   -0.3918 C.ar    1  UNL11      -0.0404
     14 C          -2.2736    0.0949   -1.4723 C.3     1  UNL11       0.0211
     15 C          -1.7391    0.9577   -2.5090 C.2     1  UNL11       0.1192
     16 N          -2.2254    0.8483   -3.7644 N.2     1  UNL11      -0.0073
     17 N          -1.8002    1.5372   -4.7949 N.am    1  UNL11      -0.0356
     18 C          -0.8149    2.4383   -4.6920 C.2     1  UNL11       0.4383
     19 O          -0.3680    3.1205   -5.6349 O.2     1  UNL11      -0.2116
     20 C          -0.2690    2.6013   -3.4183 C.ar    1  UNL11       0.1004
     21 C           0.7321    3.5170   -3.2070 C.ar    1  UNL11      -0.0441
     22 C           1.2701    3.7058   -1.9469 C.ar    1  UNL11      -0.0608
     23 C           0.7923    2.9591   -0.8774 C.ar    1  UNL11      -0.0611
     24 C          -0.2084    2.0367   -1.0703 C.ar    1  UNL11      -0.0518
     25 C          -0.7200    1.8738   -2.3352 C.ar    1  UNL11       0.0192
     26 C          -1.7245   -0.4939    0.9013 C.ar    1  UNL11      -0.0555
     27 C          -0.7910   -0.7976    1.9025 C.ar    1  UNL11      -0.0254
     28 C           0.5460   -0.8680    1.6206 C.ar    1  UNL11       0.1374
     29 F           1.4139   -1.1636    2.6163 F       1  UNL11      -0.2046
     30 H           6.1406    2.5743   -1.3673 H       1  UNL11       0.0280
     31 H           6.2935    4.3088   -0.8713 H       1  UNL11       0.0280
     32 H           6.5297    2.9747    0.3395 H       1  UNL11       0.0280
     33 H           4.2306    5.4057    0.4540 H       1  UNL11       0.1402
     34 H           1.7848    4.7303    0.6982 H       1  UNL11       0.4865
     35 H           4.4643    1.1164   -1.9193 H       1  UNL11       0.0765
     36 H           4.7553    0.5134   -0.2758 H       1  UNL11       0.0765
     37 H           0.3729   -0.1570   -1.6459 H       1  UNL11       0.0629
     38 H          -3.2580    0.4185   -1.0645 H       1  UNL11       0.0379
     39 H          -2.5349   -0.8994   -1.9640 H       1  UNL11       0.0379
     40 H          -2.2087    1.4205   -5.7731 H       1  UNL11       0.4829
     41 H           1.0723    4.0760   -4.0673 H       1  UNL11       0.0627
     42 H           2.0689    4.4434   -1.8019 H       1  UNL11       0.0618
     43 H           1.2055    3.1031    0.1118 H       1  UNL11       0.0618
     44 H          -0.6183    1.4287   -0.2765 H       1  UNL11       0.0624
     45 H          -2.7418   -0.4562    1.2478 H       1  UNL11       0.0621
     46 H          -1.1415   -0.9810    2.9328 H       1  UNL11       0.0646
     47 H           1.5578    2.2931   -0.0437 H       1  UNL11       0.2362
@<TRIPOS>BOND
     1     1     2    1
     2     1    30    1
     3     1    31    1
     4     1    32    1
     5     2     3   ar
     6     3     4   ar
     7     3    33    1
     8     4     5   ar
     9     4    34    1
    10     5     6   ar
    11     6     7    1
    12     6     2   ar
    13     7     8    1
    14     7    35    1
    15     7    36    1
    16     8     9    1
    17     9    10    2
    18     9    11    1
    19    11    12   ar
    20    12    13   ar
    21    12    37    1
    22    13    14    1
    23    13    26   ar
    24    14    15    1
    25    14    38    1
    26    14    39    1
    27    15    16    2
    28    16    17    1
    29    17    18   am
    30    17    40    1
    31    18    19    2
    32    18    20    1
    33    20    21   ar
    34    21    22   ar
    35    21    41    1
    36    22    23   ar
    37    22    42    1
    38    23    24   ar
    39    23    43    1
    40    24    25   ar
    41    24    44    1
    42    25    15    1
    43    25    20   ar
    44    26    27   ar
    45    26    45    1
    46    27    28   ar
    47    27    46    1
    48    28    29    1
    49    28    11   ar
    50     5    47    1
@<TRIPOS>MOLECULE
*****
 47 50 0 0 0
SMALL
GASTEIGER

@<TRIPOS>ATOM
      1 C           6.4070   -3.2786    2.4803 C.3     1  UNL11      -0.0321
      2 C           4.9735   -3.1148    2.8614 C.ar    1  UNL11       0.0427
      3 C           4.3204   -3.8544    3.8160 C.ar    1  UNL11       0.1982
      4 N           3.0506   -3.4163    3.8689 N.ar    1  UNL11      -0.1309
      5 N           2.9210   -2.4388    2.9781 N.ar    1  UNL11      -0.1657
      6 C           4.0621   -2.2091    2.3318 C.ar    1  UNL11       0.1195
      7 C           4.4260   -1.2499    1.2825 C.3     1  UNL11       0.1381
      8 O           3.3993   -0.4063    0.8646 O.3     1  UNL11      -0.4547
      9 C           2.3913   -0.7071   -0.0244 C.2     1  UNL11       0.3424
     10 O           2.7240   -1.0494   -1.1792 O.2     1  UNL11      -0.2448
     11 C           0.9762   -0.6382    0.3384 C.ar    1  UNL11       0.0943
     12 C           0.0395   -0.3429   -0.6158 C.ar    1  UNL11      -0.0414
     13 C          -1.3239   -0.2582   -0.3918 C.ar    1  UNL11      -0.0404
     14 C          -2.2736    0.0949   -1.4723 C.3     1  UNL11       0.0211
     15 C          -3.2813   -0.9076   -1.7631 C.2     1  UNL11       0.1192
     16 N          -4.4882   -0.5071   -2.2184 N.2     1  UNL11      -0.0073
     17 N          -5.4937   -1.3065   -2.4778 N.am    1  UNL11      -0.0356
     18 C          -5.4118   -2.6324   -2.3086 C.2     1  UNL11       0.4383
     19 O          -6.3331   -3.4409   -2.5361 O.2     1  UNL11      -0.2116
     20 C          -4.1880   -3.1124   -1.8409 C.ar    1  UNL11       0.1004
     21 C          -3.9989   -4.4597   -1.6555 C.ar    1  UNL11      -0.0441
     22 C          -2.7856   -4.9540   -1.2122 C.ar    1  UNL11      -0.0608
     23 C          -1.7411   -4.0765   -0.9498 C.ar    1  UNL11      -0.0611
     24 C          -1.9126   -2.7244   -1.1282 C.ar    1  UNL11      -0.0518
     25 C          -3.1310   -2.2669   -1.5692 C.ar    1  UNL11       0.0192
     26 C          -1.7245   -0.4939    0.9013 C.ar    1  UNL11      -0.0555
     27 C          -0.7910   -0.7976    1.9025 C.ar    1  UNL11      -0.0254
     28 C           0.5460   -0.8680    1.6206 C.ar    1  UNL11       0.1374
     29 F           1.4139   -1.1636    2.6163 F       1  UNL11      -0.2046
     30 H           6.8009   -2.2970    2.1334 H       1  UNL11       0.0280
     31 H           6.9944   -3.6087    3.3662 H       1  UNL11       0.0280
     32 H           6.5273   -4.0063    1.6558 H       1  UNL11       0.0280
     33 H           4.7582   -4.6565    4.4228 H       1  UNL11       0.1402
     34 H           2.3495   -3.8288    4.5263 H       1  UNL11       0.4865
     35 H           5.2927   -0.6452    1.6463 H       1  UNL11       0.0765
     36 H           4.8087   -1.7765    0.3676 H       1  UNL11       0.0765
     37 H           0.3729   -0.1570   -1.6459 H       1  UNL11       0.0629
     38 H          -1.7464    0.4931   -2.3687 H       1  UNL11       0.0379
     39 H          -2.8193    1.0183   -1.0874 H       1  UNL11       0.0379
     40 H          -6.4339   -0.9513   -2.8344 H       1  UNL11       0.4829
     41 H          -4.8382   -5.1051   -1.8727 H       1  UNL11       0.0627
     42 H          -2.6575   -6.0343   -1.0718 H       1  UNL11       0.0618
     43 H          -0.7882   -4.4555   -0.6060 H       1  UNL11       0.0618
     44 H          -1.1365   -1.9963   -0.9403 H       1  UNL11       0.0624
     45 H          -2.7418   -0.4562    1.2478 H       1  UNL11       0.0621
     46 H          -1.1415   -0.9810    2.9328 H       1  UNL11       0.0646
     47 H           2.0847   -1.9454    2.8162 H       1  UNL11       0.2362
@<TRIPOS>BOND
     1     1     2    1
     2     1    30    1
     3     1    31    1
     4     1    32    1
     5     2     3   ar
     6     3     4   ar
     7     3    33    1
     8     4     5   ar
     9     4    34    1
    10     5     6   ar
    11     6     7    1
    12     6     2   ar
    13     7     8    1
    14     7    35    1
    15     7    36    1
    16     8     9    1
    17     9    10    2
    18     9    11    1
    19    11    12   ar
    20    12    13   ar
    21    12    37    1
    22    13    14    1
    23    13    26   ar
    24    14    15    1
    25    14    38    1
    26    14    39    1
    27    15    16    2
    28    16    17    1
    29    17    18   am
    30    17    40    1
    31    18    19    2
    32    18    20    1
    33    20    21   ar
    34    21    22   ar
    35    21    41    1
    36    22    23   ar
    37    22    42    1
    38    23    24   ar
    39    23    43    1
    40    24    25   ar
    41    24    44    1
    42    25    15    1
    43    25    20   ar
    44    26    27   ar
    45    26    45    1
    46    27    28   ar
    47    27    46    1
    48    28    29    1
    49    28    11   ar
    50     5    47    1
@<TRIPOS>MOLECULE
*****
 47 50 0 0 0
SMALL
GASTEIGER

@<TRIPOS>ATOM
      1 C           3.8855    1.7087    2.6367 C.3     1  UNL11      -0.0321
      2 C           5.0574    1.7915    1.7163 C.ar    1  UNL11       0.0427
      3 C           5.9247    2.8526    1.6352 C.ar    1  UNL11       0.1982
      4 N           6.8399    2.5565    0.6962 N.ar    1  UNL11      -0.1309
      5 N           6.5502    1.3534    0.2121 N.ar    1  UNL11      -0.1657
      6 C           5.4717    0.8357    0.7965 C.ar    1  UNL11       0.1195
      7 C           4.7700   -0.4407    0.6187 C.3     1  UNL11       0.1381
      8 O           3.3993   -0.4063    0.8646 O.3     1  UNL11      -0.4547
      9 C           2.3913   -0.7071   -0.0244 C.2     1  UNL11       0.3424
     10 O           2.7240   -1.0494   -1.1792 O.2     1  UNL11      -0.2448
     11 C           0.9762   -0.6382    0.3384 C.ar    1  UNL11       0.0943
     12 C           0.0395   -0.3429   -0.6158 C.ar    1  UNL11      -0.0414
     13 C          -1.3239   -0.2582   -0.3918 C.ar    1  UNL11      -0.0404
     14 C          -2.2736    0.0949   -1.4723 C.3     1  UNL11       0.0211
     15 C          -3.4674    0.7982   -1.0421 C.2     1  UNL11       0.1192
     16 N          -4.0514    1.6724   -1.8901 N.2     1  UNL11      -0.0073
     17 N          -5.1052    2.3987   -1.6085 N.am    1  UNL11      -0.0356
     18 C          -5.7151    2.3376   -0.4178 C.2     1  UNL11       0.4383
     19 O          -6.7172    3.0040   -0.0923 O.2     1  UNL11      -0.2116
     20 C          -5.1612    1.4503    0.5056 C.ar    1  UNL11       0.1004
     21 C          -5.7284    1.3009    1.7471 C.ar    1  UNL11      -0.0441
     22 C          -5.2043    0.4108    2.6669 C.ar    1  UNL11      -0.0608
     23 C          -4.0876   -0.3446    2.3321 C.ar    1  UNL11      -0.0611
     24 C          -3.5056   -0.2074    1.0945 C.ar    1  UNL11      -0.0518
     25 C          -4.0512    0.6865    0.2048 C.ar    1  UNL11       0.0192
     26 C          -1.7245   -0.4939    0.9013 C.ar    1  UNL11      -0.0555
     27 C          -0.7910   -0.7976    1.9025 C.ar    1  UNL11      -0.0254
     28 C           0.5460   -0.8680    1.6206 C.ar    1  UNL11       0.1374
     29 F           1.4139   -1.1636    2.6163 F       1  UNL11      -0.2046
     30 H           3.7009    0.6401    2.8879 H       1  UNL11       0.0280
     31 H           4.1065    2.2654    3.5748 H       1  UNL11       0.0280
     32 H           2.9699    2.1127    2.1654 H       1  UNL11       0.0280
     33 H           5.8763    3.7732    2.2297 H       1  UNL11       0.1402
     34 H           7.6137    3.2156    0.4499 H       1  UNL11       0.4865
     35 H           4.9623   -0.8041   -0.4206 H       1  UNL11       0.0765
     36 H           5.2012   -1.2360    1.2840 H       1  UNL11       0.0765
     37 H           0.3729   -0.1570   -1.6459 H       1  UNL11       0.0629
     38 H          -2.4651   -0.7683   -2.1493 H       1  UNL11       0.0379
     39 H          -1.6915    0.8034   -2.1489 H       1  UNL11       0.0379
     40 H          -5.5366    3.0810   -2.3054 H       1  UNL11       0.4829
     41 H          -6.5958    1.9081    1.9641 H       1  UNL11       0.0627
     42 H          -5.6744    0.3080    3.6526 H       1  UNL11       0.0618
     43 H          -3.6737   -1.0453    3.0446 H       1  UNL11       0.0618
     44 H          -2.6369   -0.7680    0.7799 H       1  UNL11       0.0624
     45 H          -2.7418   -0.4562    1.2478 H       1  UNL11       0.0621
     46 H          -1.1415   -0.9810    2.9328 H       1  UNL11       0.0646
     47 H           7.0689    0.9007   -0.4917 H       1  UNL11       0.2362
@<TRIPOS>BOND
     1     1     2    1
     2     1    30    1
     3     1    31    1
     4     1    32    1
     5     2     3   ar
     6     3     4   ar
     7     3    33    1
     8     4     5   ar
     9     4    34    1
    10     5     6   ar
    11     6     7    1
    12     6     2   ar
    13     7     8    1
    14     7    35    1
    15     7    36    1
    16     8     9    1
    17     9    10    2
    18     9    11    1
    19    11    12   ar
    20    12    13   ar
    21    12    37    1
    22    13    14    1
    23    13    26   ar
    24    14    15    1
    25    14    38    1
    26    14    39    1
    27    15    16    2
    28    16    17    1
    29    17    18   am
    30    17    40    1
    31    18    19    2
    32    18    20    1
    33    20    21   ar
    34    21    22   ar
    35    21    41    1
    36    22    23   ar
    37    22    42    1
    38    23    24   ar
    39    23    43    1
    40    24    25   ar
    41    24    44    1
    42    25    15    1
    43    25    20   ar
    44    26    27   ar
    45    26    45    1
    46    27    28   ar
    47    27    46    1
    48    28    29    1
    49    28    11   ar
    50     5    47    1
@<TRIPOS>MOLECULE
*****
 47 50 0 0 0
SMALL
GASTEIGER

@<TRIPOS>ATOM
      1 C           0.8251   -0.1483   -2.9754 C.3     1  UNL11      -0.0321
      2 C           1.6416   -1.1190   -3.7616 C.ar    1  UNL11       0.0427
      3 C           1.3036   -1.6191   -4.9947 C.ar    1  UNL11       0.1982
      4 N           2.2822   -2.4596   -5.3729 N.ar    1  UNL11      -0.1309
      5 N           3.1954   -2.4796   -4.4078 N.ar    1  UNL11      -0.1657
      6 C           2.8595   -1.6805   -3.3973 C.ar    1  UNL11       0.1195
      7 C           3.5251   -1.3604   -2.1292 C.3     1  UNL11       0.1381
      8 O           2.8399   -0.4707   -1.3049 O.3     1  UNL11      -0.4547
      9 C           2.3913   -0.7071   -0.0244 C.2     1  UNL11       0.3424
     10 O           3.2453   -0.9895    0.8430 O.2     1  UNL11      -0.2448
     11 C           0.9762   -0.6382    0.3384 C.ar    1  UNL11       0.0943
     12 C           0.0395   -0.3429   -0.6158 C.ar    1  UNL11      -0.0414
     13 C          -1.3239   -0.2582   -0.3918 C.ar    1  UNL11      -0.0404
     14 C          -2.2736    0.0949   -1.4723 C.3     1  UNL11       0.0211
     15 C          -3.2813   -0.9076   -1.7631 C.2     1  UNL11       0.1192
     16 N          -3.2840   -2.0559   -1.0521 N.2     1  UNL11      -0.0073
     17 N          -4.1115   -3.0537   -1.2441 N.am    1  UNL11      -0.0356
     18 C          -5.0567   -3.0230   -2.1923 C.2     1  UNL11       0.4383
     19 O          -5.8690   -3.9403   -2.4226 O.2     1  UNL11      -0.2116
     20 C          -5.1089   -1.8611   -2.9631 C.ar    1  UNL11       0.1004
     21 C          -6.0574   -1.7258   -3.9466 C.ar    1  UNL11      -0.0441
     22 C          -6.1361   -0.5725   -4.7060 C.ar    1  UNL11      -0.0608
     23 C          -5.2435    0.4659   -4.4722 C.ar    1  UNL11      -0.0611
     24 C          -4.2863    0.3476   -3.4928 C.ar    1  UNL11      -0.0518
     25 C          -4.2355   -0.8120   -2.7573 C.ar    1  UNL11       0.0192
     26 C          -1.7245   -0.4939    0.9013 C.ar    1  UNL11      -0.0555
     27 C          -0.7910   -0.7976    1.9025 C.ar    1  UNL11      -0.0254
     28 C           0.5460   -0.8680    1.6206 C.ar    1  UNL11       0.1374
     29 F           1.4139   -1.1636    2.6163 F       1  UNL11      -0.2046
     30 H           1.5064    0.4668   -2.3457 H       1  UNL11       0.0280
     31 H           0.2723    0.5239   -3.6692 H       1  UNL11       0.0280
     32 H           0.1134   -0.6658   -2.3050 H       1  UNL11       0.0280
     33 H           0.3984   -1.3753   -5.5645 H       1  UNL11       0.1402
     34 H           2.2519   -2.9698   -6.2854 H       1  UNL11       0.4865
     35 H           3.7165   -2.3166   -1.5832 H       1  UNL11       0.0765
     36 H           4.5441   -0.9230   -2.3059 H       1  UNL11       0.0765
     37 H           0.3729   -0.1570   -1.6459 H       1  UNL11       0.0629
     38 H          -1.7464    0.4931   -2.3687 H       1  UNL11       0.0379
     39 H          -2.8193    1.0183   -1.0874 H       1  UNL11       0.0379
     40 H          -4.0806   -3.9470   -0.6623 H       1  UNL11       0.4829
     41 H          -6.7312   -2.5581   -4.0932 H       1  UNL11       0.0627
     42 H          -6.9025   -0.4867   -5.4861 H       1  UNL11       0.0618
     43 H          -5.3006    1.3724   -5.0595 H       1  UNL11       0.0618
     44 H          -3.5670    1.1218   -3.2672 H       1  UNL11       0.0624
     45 H          -2.7418   -0.4562    1.2478 H       1  UNL11       0.0621
     46 H          -1.1415   -0.9810    2.9328 H       1  UNL11       0.0646
     47 H           4.0187   -3.0188   -4.4365 H       1  UNL11       0.2362
@<TRIPOS>BOND
     1     1     2    1
     2     1    30    1
     3     1    31    1
     4     1    32    1
     5     2     3   ar
     6     3     4   ar
     7     3    33    1
     8     4     5   ar
     9     4    34    1
    10     5     6   ar
    11     6     7    1
    12     6     2   ar
    13     7     8    1
    14     7    35    1
    15     7    36    1
    16     8     9    1
    17     9    10    2
    18     9    11    1
    19    11    12   ar
    20    12    13   ar
    21    12    37    1
    22    13    14    1
    23    13    26   ar
    24    14    15    1
    25    14    38    1
    26    14    39    1
    27    15    16    2
    28    16    17    1
    29    17    18   am
    30    17    40    1
    31    18    19    2
    32    18    20    1
    33    20    21   ar
    34    21    22   ar
    35    21    41    1
    36    22    23   ar
    37    22    42    1
    38    23    24   ar
    39    23    43    1
    40    24    25   ar
    41    24    44    1
    42    25    15    1
    43    25    20   ar
    44    26    27   ar
    45    26    45    1
    46    27    28   ar
    47    27    46    1
    48    28    29    1
    49    28    11   ar
    50     5    47    1
@<TRIPOS>MOLECULE
*****
 47 50 0 0 0
SMALL
GASTEIGER

@<TRIPOS>ATOM
      1 C           3.9494    0.0811   -4.7505 C.3     1  UNL11      -0.0321
      2 C           4.8240   -0.7917   -3.9136 C.ar    1  UNL11       0.0427
      3 C           5.7118   -1.7192   -4.4000 C.ar    1  UNL11       0.1982
      4 N           6.3070   -2.3019   -3.3449 N.ar    1  UNL11      -0.1309
      5 N           5.8058   -1.7545   -2.2426 N.ar    1  UNL11      -0.1657
      6 C           4.8954   -0.8253   -2.5261 C.ar    1  UNL11       0.1195
      7 C           4.0787    0.0479   -1.6753 C.3     1  UNL11       0.1381
      8 O           2.8399   -0.4707   -1.3049 O.3     1  UNL11      -0.4547
      9 C           2.3913   -0.7071   -0.0244 C.2     1  UNL11       0.3424
     10 O           3.2453   -0.9895    0.8430 O.2     1  UNL11      -0.2448
     11 C           0.9762   -0.6382    0.3384 C.ar    1  UNL11       0.0943
     12 C           0.0395   -0.3429   -0.6158 C.ar    1  UNL11      -0.0414
     13 C          -1.3239   -0.2582   -0.3918 C.ar    1  UNL11      -0.0404
     14 C          -2.2736    0.0949   -1.4723 C.3     1  UNL11       0.0211
     15 C          -2.5482    1.5122   -1.6167 C.2     1  UNL11       0.1192
     16 N          -3.4155    1.9152   -2.5704 N.2     1  UNL11      -0.0073
     17 N          -3.7165    3.1641   -2.8296 N.am    1  UNL11      -0.0356
     18 C          -3.1735    4.1832   -2.1514 C.2     1  UNL11       0.4383
     19 O          -3.4190    5.3887   -2.3538 O.2     1  UNL11      -0.2116
     20 C          -2.2682    3.8342   -1.1487 C.ar    1  UNL11       0.1004
     21 C          -1.6744    4.8077   -0.3837 C.ar    1  UNL11      -0.0441
     22 C          -0.7905    4.4780    0.6277 C.ar    1  UNL11      -0.0608
     23 C          -0.4974    3.1429    0.8754 C.ar    1  UNL11      -0.0611
     24 C          -1.0812    2.1550    0.1188 C.ar    1  UNL11      -0.0518
     25 C          -1.9542    2.5173   -0.8786 C.ar    1  UNL11       0.0192
     26 C          -1.7245   -0.4939    0.9013 C.ar    1  UNL11      -0.0555
     27 C          -0.7910   -0.7976    1.9025 C.ar    1  UNL11      -0.0254
     28 C           0.5460   -0.8680    1.6206 C.ar    1  UNL11       0.1374
     29 F           1.4139   -1.1636    2.6163 F       1  UNL11      -0.2046
     30 H           3.7622    1.0322   -4.2034 H       1  UNL11       0.0280
     31 H           4.4619    0.3138   -5.7108 H       1  UNL11       0.0280
     32 H           2.9719   -0.3965   -4.9511 H       1  UNL11       0.0280
     33 H           5.8983   -1.9419   -5.4577 H       1  UNL11       0.1402
     34 H           7.0295   -3.0493   -3.4599 H       1  UNL11       0.4865
     35 H           4.6730    0.3043   -0.7642 H       1  UNL11       0.0765
     36 H           3.8834    1.0337   -2.1762 H       1  UNL11       0.0765
     37 H           0.3729   -0.1570   -1.6459 H       1  UNL11       0.0629
     38 H          -3.1804   -0.5510   -1.4496 H       1  UNL11       0.0379
     39 H          -1.7614   -0.2477   -2.4309 H       1  UNL11       0.0379
     40 H          -4.4058    3.4431   -3.5940 H       1  UNL11       0.4829
     41 H          -1.9322    5.8325   -0.6111 H       1  UNL11       0.0627
     42 H          -0.3286    5.2728    1.2262 H       1  UNL11       0.0618
     43 H           0.1902    2.8768    1.6667 H       1  UNL11       0.0618
     44 H          -0.8907    1.1015    0.2665 H       1  UNL11       0.0624
     45 H          -2.7418   -0.4562    1.2478 H       1  UNL11       0.0621
     46 H          -1.1415   -0.9810    2.9328 H       1  UNL11       0.0646
     47 H           6.0745   -2.0050   -1.3292 H       1  UNL11       0.2362
@<TRIPOS>BOND
     1     1     2    1
     2     1    30    1
     3     1    31    1
     4     1    32    1
     5     2     3   ar
     6     3     4   ar
     7     3    33    1
     8     4     5   ar
     9     4    34    1
    10     5     6   ar
    11     6     7    1
    12     6     2   ar
    13     7     8    1
    14     7    35    1
    15     7    36    1
    16     8     9    1
    17     9    10    2
    18     9    11    1
    19    11    12   ar
    20    12    13   ar
    21    12    37    1
    22    13    14    1
    23    13    26   ar
    24    14    15    1
    25    14    38    1
    26    14    39    1
    27    15    16    2
    28    16    17    1
    29    17    18   am
    30    17    40    1
    31    18    19    2
    32    18    20    1
    33    20    21   ar
    34    21    22   ar
    35    21    41    1
    36    22    23   ar
    37    22    42    1
    38    23    24   ar
    39    23    43    1
    40    24    25   ar
    41    24    44    1
    42    25    15    1
    43    25    20   ar
    44    26    27   ar
    45    26    45    1
    46    27    28   ar
    47    27    46    1
    48    28    29    1
    49    28    11   ar
    50     5    47    1
@<TRIPOS>MOLECULE
*****
 47 50 0 0 0
SMALL
GASTEIGER

@<TRIPOS>ATOM
      1 C           3.9428   -2.7770   -1.2069 C.3     1  UNL11      -0.0321
      2 C           4.9994   -2.8117   -0.1536 C.ar    1  UNL11       0.0427
      3 C           5.7683   -3.9055    0.1584 C.ar    1  UNL11       0.1982
      4 N           6.5979   -3.5467    1.1534 N.ar    1  UNL11      -0.1309
      5 N           6.3521   -2.2745    1.4480 N.ar    1  UNL11      -0.1657
      6 C           5.3857   -1.7712    0.6828 C.ar    1  UNL11       0.1195
      7 C           4.7700   -0.4407    0.6187 C.3     1  UNL11       0.1381
      8 O           3.3993   -0.4063    0.8646 O.3     1  UNL11      -0.4547
      9 C           2.3913   -0.7071   -0.0244 C.2     1  UNL11       0.3424
     10 O           2.7240   -1.0494   -1.1792 O.2     1  UNL11      -0.2448
     11 C           0.9762   -0.6382    0.3384 C.ar    1  UNL11       0.0943
     12 C           0.0395   -0.3429   -0.6158 C.ar    1  UNL11      -0.0414
     13 C          -1.3239   -0.2582   -0.3918 C.ar    1  UNL11      -0.0404
     14 C          -2.2736    0.0949   -1.4723 C.3     1  UNL11       0.0211
     15 C          -1.6720    0.3425   -2.7691 C.2     1  UNL11       0.1192
     16 N          -2.3829    0.0621   -3.8828 N.2     1  UNL11      -0.0073
     17 N          -1.9404    0.2007   -5.1084 N.am    1  UNL11      -0.0356
     18 C          -0.7055    0.6456   -5.3740 C.2     1  UNL11       0.4383
     19 O          -0.2294    0.7957   -6.5164 O.2     1  UNL11      -0.2116
     20 C           0.0821    0.9555   -4.2647 C.ar    1  UNL11       0.1004
     21 C           1.3559    1.4392   -4.4344 C.ar    1  UNL11      -0.0441
     22 C           2.1425    1.7706   -3.3461 C.ar    1  UNL11      -0.0608
     23 C           1.6386    1.6130   -2.0612 C.ar    1  UNL11      -0.0611
     24 C           0.3662    1.1288   -1.8720 C.ar    1  UNL11      -0.0518
     25 C          -0.3881    0.8085   -2.9751 C.ar    1  UNL11       0.0192
     26 C          -1.7245   -0.4939    0.9013 C.ar    1  UNL11      -0.0555
     27 C          -0.7910   -0.7976    1.9025 C.ar    1  UNL11      -0.0254
     28 C           0.5460   -0.8680    1.6206 C.ar    1  UNL11       0.1374
     29 F           1.4139   -1.1636    2.6163 F       1  UNL11      -0.2046
     30 H           3.8695   -1.7413   -1.6080 H       1  UNL11       0.0280
     31 H           4.2191   -3.4652   -2.0369 H       1  UNL11       0.0280
     32 H           2.9534   -3.0568   -0.7987 H       1  UNL11       0.0280
     33 H           5.7126   -4.8915   -0.3192 H       1  UNL11       0.1402
     34 H           7.2875   -4.2152    1.5675 H       1  UNL11       0.4865
     35 H           5.3039    0.2272    1.3384 H       1  UNL11       0.0765
     36 H           4.9334    0.0330   -0.3862 H       1  UNL11       0.0765
     37 H           0.3729   -0.1570   -1.6459 H       1  UNL11       0.0629
     38 H          -2.9988    0.8735   -1.1437 H       1  UNL11       0.0379
     39 H          -2.9417   -0.8219   -1.5811 H       1  UNL11       0.0379
     40 H          -2.5324   -0.0340   -5.9639 H       1  UNL11       0.4829
     41 H           1.7063    1.5462   -5.4513 H       1  UNL11       0.0627
     42 H           3.1571    2.1557   -3.5060 H       1  UNL11       0.0618
     43 H           2.2463    1.8731   -1.2050 H       1  UNL11       0.0618
     44 H          -0.0771    0.9857   -0.8969 H       1  UNL11       0.0624
     45 H          -2.7418   -0.4562    1.2478 H       1  UNL11       0.0621
     46 H          -1.1415   -0.9810    2.9328 H       1  UNL11       0.0646
     47 H           6.8260   -1.7668    2.1458 H       1  UNL11       0.2362
@<TRIPOS>BOND
     1     1     2    1
     2     1    30    1
     3     1    31    1
     4     1    32    1
     5     2     3   ar
     6     3     4   ar
     7     3    33    1
     8     4     5   ar
     9     4    34    1
    10     5     6   ar
    11     6     7    1
    12     6     2   ar
    13     7     8    1
    14     7    35    1
    15     7    36    1
    16     8     9    1
    17     9    10    2
    18     9    11    1
    19    11    12   ar
    20    12    13   ar
    21    12    37    1
    22    13    14    1
    23    13    26   ar
    24    14    15    1
    25    14    38    1
    26    14    39    1
    27    15    16    2
    28    16    17    1
    29    17    18   am
    30    17    40    1
    31    18    19    2
    32    18    20    1
    33    20    21   ar
    34    21    22   ar
    35    21    41    1
    36    22    23   ar
    37    22    42    1
    38    23    24   ar
    39    23    43    1
    40    24    25   ar
    41    24    44    1
    42    25    15    1
    43    25    20   ar
    44    26    27   ar
    45    26    45    1
    46    27    28   ar
    47    27    46    1
    48    28    29    1
    49    28    11   ar
    50     5    47    1
@<TRIPOS>MOLECULE
*****
 47 50 0 0 0
SMALL
GASTEIGER

@<TRIPOS>ATOM
      1 C           3.8371   -1.9168   -1.9162 C.3     1  UNL11      -0.0321
      2 C           4.8676   -2.3925   -0.9471 C.ar    1  UNL11       0.0427
      3 C           5.5604   -3.5735   -1.0469 C.ar    1  UNL11       0.1982
      4 N           6.3899   -3.6466    0.0084 N.ar    1  UNL11      -0.1309
      5 N           6.2176   -2.5488    0.7370 N.ar    1  UNL11      -0.1657
      6 C           5.3004   -1.7445    0.2036 C.ar    1  UNL11       0.1195
      7 C           4.7700   -0.4407    0.6187 C.3     1  UNL11       0.1381
      8 O           3.3993   -0.4063    0.8646 O.3     1  UNL11      -0.4547
      9 C           2.3913   -0.7071   -0.0244 C.2     1  UNL11       0.3424
     10 O           2.7240   -1.0494   -1.1792 O.2     1  UNL11      -0.2448
     11 C           0.9762   -0.6382    0.3384 C.ar    1  UNL11       0.0943
     12 C           0.0395   -0.3429   -0.6158 C.ar    1  UNL11      -0.0414
     13 C          -1.3239   -0.2582   -0.3918 C.ar    1  UNL11      -0.0404
     14 C          -2.2736    0.0949   -1.4723 C.3     1  UNL11       0.0211
     15 C          -2.8053   -1.0284   -2.2209 C.2     1  UNL11       0.1192
     16 N          -2.0490   -2.1391   -2.3567 N.2     1  UNL11      -0.0073
     17 N          -2.3952   -3.2020   -3.0406 N.am    1  UNL11      -0.0356
     18 C          -3.5656   -3.2836   -3.6863 C.2     1  UNL11       0.4383
     19 O          -3.9479   -4.2654   -4.3529 O.2     1  UNL11      -0.2116
     20 C          -4.3966   -2.1674   -3.5846 C.ar    1  UNL11       0.1004
     21 C          -5.6268   -2.1634   -4.1945 C.ar    1  UNL11      -0.0441
     22 C          -6.4714   -1.0735   -4.0866 C.ar    1  UNL11      -0.0608
     23 C          -6.0715    0.0349   -3.3509 C.ar    1  UNL11      -0.0611
     24 C          -4.8429    0.0494   -2.7348 C.ar    1  UNL11      -0.0518
     25 C          -4.0283   -1.0498   -2.8628 C.ar    1  UNL11       0.0192
     26 C          -1.7245   -0.4939    0.9013 C.ar    1  UNL11      -0.0555
     27 C          -0.7910   -0.7976    1.9025 C.ar    1  UNL11      -0.0254
     28 C           0.5460   -0.8680    1.6206 C.ar    1  UNL11       0.1374
     29 F           1.4139   -1.1636    2.6163 F       1  UNL11      -0.2046
     30 H           3.8366   -0.8038   -1.9225 H       1  UNL11       0.0280
     31 H           4.0873   -2.2819   -2.9376 H       1  UNL11       0.0280
     32 H           2.8241   -2.2581   -1.6316 H       1  UNL11       0.0280
     33 H           5.4534   -4.3197   -1.8438 H       1  UNL11       0.1402
     34 H           7.0279   -4.4622    0.1557 H       1  UNL11       0.4865
     35 H           5.3294   -0.1085    1.5274 H       1  UNL11       0.0765
     36 H           4.9833    0.3473   -0.1524 H       1  UNL11       0.0765
     37 H           0.3729   -0.1570   -1.6459 H       1  UNL11       0.0629
     38 H          -1.8879    0.9283   -2.1022 H       1  UNL11       0.0379
     39 H          -3.1507    0.5875   -0.9369 H       1  UNL11       0.0379
     40 H          -1.7682   -4.0604   -3.1265 H       1  UNL11       0.4829
     41 H          -5.8967   -3.0469   -4.7556 H       1  UNL11       0.0627
     42 H          -7.4498   -1.0929   -4.5821 H       1  UNL11       0.0618
     43 H          -6.7276    0.8900   -3.2590 H       1  UNL11       0.0618
     44 H          -4.4800    0.8829   -2.1505 H       1  UNL11       0.0624
     45 H          -2.7418   -0.4562    1.2478 H       1  UNL11       0.0621
     46 H          -1.1415   -0.9810    2.9328 H       1  UNL11       0.0646
     47 H           6.7076   -2.3542    1.5684 H       1  UNL11       0.2362
@<TRIPOS>BOND
     1     1     2    1
     2     1    30    1
     3     1    31    1
     4     1    32    1
     5     2     3   ar
     6     3     4   ar
     7     3    33    1
     8     4     5   ar
     9     4    34    1
    10     5     6   ar
    11     6     7    1
    12     6     2   ar
    13     7     8    1
    14     7    35    1
    15     7    36    1
    16     8     9    1
    17     9    10    2
    18     9    11    1
    19    11    12   ar
    20    12    13   ar
    21    12    37    1
    22    13    14    1
    23    13    26   ar
    24    14    15    1
    25    14    38    1
    26    14    39    1
    27    15    16    2
    28    16    17    1
    29    17    18   am
    30    17    40    1
    31    18    19    2
    32    18    20    1
    33    20    21   ar
    34    21    22   ar
    35    21    41    1
    36    22    23   ar
    37    22    42    1
    38    23    24   ar
    39    23    43    1
    40    24    25   ar
    41    24    44    1
    42    25    15    1
    43    25    20   ar
    44    26    27   ar
    45    26    45    1
    46    27    28   ar
    47    27    46    1
    48    28    29    1
    49    28    11   ar
    50     5    47    1
@<TRIPOS>MOLECULE
*****
 47 50 0 0 0
SMALL
GASTEIGER

@<TRIPOS>ATOM
      1 C           4.0552   -3.3822   -2.3103 C.3     1  UNL11      -0.0321
      2 C           5.0606   -2.3193   -2.6045 C.ar    1  UNL11       0.0427
      3 C           6.3590   -2.5447   -2.9895 C.ar    1  UNL11       0.1982
      4 N           6.9455   -1.3468   -3.1567 N.ar    1  UNL11      -0.1309
      5 N           6.0419   -0.4110   -2.8850 N.ar    1  UNL11      -0.1657
      6 C           4.8711   -0.9439   -2.5419 C.ar    1  UNL11       0.1195
      7 C           3.5862   -0.3435   -2.1651 C.3     1  UNL11       0.1381
      8 O           2.8170   -1.0914   -1.2766 O.3     1  UNL11      -0.4547
      9 C           2.3913   -0.7071   -0.0244 C.2     1  UNL11       0.3424
     10 O           3.2668   -0.4109    0.8166 O.2     1  UNL11      -0.2448
     11 C           0.9762   -0.6382    0.3384 C.ar    1  UNL11       0.0943
     12 C           0.0395   -0.3429   -0.6158 C.ar    1  UNL11      -0.0414
     13 C          -1.3239   -0.2582   -0.3918 C.ar    1  UNL11      -0.0404
     14 C          -2.2736    0.0949   -1.4723 C.3     1  UNL11       0.0211
     15 C          -3.4674    0.7982   -1.0421 C.2     1  UNL11       0.1192
     16 N          -3.9495    0.5677    0.1984 N.2     1  UNL11      -0.0073
     17 N          -5.0386    1.1053    0.6904 N.am    1  UNL11      -0.0356
     18 C          -5.7943    1.9567   -0.0149 C.2     1  UNL11       0.4383
     19 O          -6.8392    2.4969    0.3982 O.2     1  UNL11      -0.2116
     20 C          -5.3496    2.2392   -1.3069 C.ar    1  UNL11       0.1004
     21 C          -6.0452    3.1172   -2.1011 C.ar    1  UNL11      -0.0441
     22 C          -5.6071    3.4240   -3.3766 C.ar    1  UNL11      -0.0608
     23 C          -4.4463    2.8366   -3.8638 C.ar    1  UNL11      -0.0611
     24 C          -3.7378    1.9542   -3.0836 C.ar    1  UNL11      -0.0518
     25 C          -4.2015    1.6710   -1.8214 C.ar    1  UNL11       0.0192
     26 C          -1.7245   -0.4939    0.9013 C.ar    1  UNL11      -0.0555
     27 C          -0.7910   -0.7976    1.9025 C.ar    1  UNL11      -0.0254
     28 C           0.5460   -0.8680    1.6206 C.ar    1  UNL11       0.1374
     29 F           1.4139   -1.1636    2.6163 F       1  UNL11      -0.2046
     30 H           3.0402   -2.9922   -2.5480 H       1  UNL11       0.0280
     31 H           4.2558   -4.2734   -2.9463 H       1  UNL11       0.0280
     32 H           4.0698   -3.6703   -1.2423 H       1  UNL11       0.0280
     33 H           6.8290   -3.5255   -3.1330 H       1  UNL11       0.1402
     34 H           7.9449   -1.2559   -3.4512 H       1  UNL11       0.4865
     35 H           3.7853    0.6701   -1.7381 H       1  UNL11       0.0765
     36 H           2.9479   -0.1527   -3.0690 H       1  UNL11       0.0765
     37 H           0.3729   -0.1570   -1.6459 H       1  UNL11       0.0629
     38 H          -2.4651   -0.7683   -2.1493 H       1  UNL11       0.0379
     39 H          -1.6915    0.8034   -2.1489 H       1  UNL11       0.0379
     40 H          -5.3890    0.8962    1.6758 H       1  UNL11       0.4829
     41 H          -6.9418    3.5507   -1.6810 H       1  UNL11       0.0627
     42 H          -6.1789    4.1286   -3.9928 H       1  UNL11       0.0618
     43 H          -4.0953    3.0739   -4.8590 H       1  UNL11       0.0618
     44 H          -2.8296    1.4680   -3.4099 H       1  UNL11       0.0624
     45 H          -2.7418   -0.4562    1.2478 H       1  UNL11       0.0621
     46 H          -1.1415   -0.9810    2.9328 H       1  UNL11       0.0646
     47 H           6.2167    0.5567   -2.9318 H       1  UNL11       0.2362
@<TRIPOS>BOND
     1     1     2    1
     2     1    30    1
     3     1    31    1
     4     1    32    1
     5     2     3   ar
     6     3     4   ar
     7     3    33    1
     8     4     5   ar
     9     4    34    1
    10     5     6   ar
    11     6     7    1
    12     6     2   ar
    13     7     8    1
    14     7    35    1
    15     7    36    1
    16     8     9    1
    17     9    10    2
    18     9    11    1
    19    11    12   ar
    20    12    13   ar
    21    12    37    1
    22    13    14    1
    23    13    26   ar
    24    14    15    1
    25    14    38    1
    26    14    39    1
    27    15    16    2
    28    16    17    1
    29    17    18   am
    30    17    40    1
    31    18    19    2
    32    18    20    1
    33    20    21   ar
    34    21    22   ar
    35    21    41    1
    36    22    23   ar
    37    22    42    1
    38    23    24   ar
    39    23    43    1
    40    24    25   ar
    41    24    44    1
    42    25    15    1
    43    25    20   ar
    44    26    27   ar
    45    26    45    1
    46    27    28   ar
    47    27    46    1
    48    28    29    1
    49    28    11   ar
    50     5    47    1
@<TRIPOS>MOLECULE
*****
 47 50 0 0 0
SMALL
GASTEIGER

@<TRIPOS>ATOM
      1 C           5.9517    3.3009   -0.5455 C.3     1  UNL11      -0.0321
      2 C           4.4871    3.3357   -0.2606 C.ar    1  UNL11       0.0427
      3 C           3.8012    4.4241    0.2188 C.ar    1  UNL11       0.1982
      4 N           2.5119    4.0657    0.3468 N.ar    1  UNL11      -0.1309
      5 N           2.4023    2.7992   -0.0401 N.ar    1  UNL11      -0.1657
      6 C           3.5755    2.2993   -0.4224 C.ar    1  UNL11       0.1195
      7 C           3.9679    0.9785   -0.9275 C.3     1  UNL11       0.1381
      8 O           2.9339    0.0516   -1.0377 O.3     1  UNL11      -0.4547
      9 C           2.3913   -0.7071   -0.0244 C.2     1  UNL11       0.3424
     10 O           3.1578   -1.4763    0.5939 O.2     1  UNL11      -0.2448
     11 C           0.9762   -0.6382    0.3384 C.ar    1  UNL11       0.0943
     12 C           0.0395   -0.3429   -0.6158 C.ar    1  UNL11      -0.0414
     13 C          -1.3239   -0.2582   -0.3918 C.ar    1  UNL11      -0.0404
     14 C          -2.2736    0.0949   -1.4723 C.3     1  UNL11       0.0211
     15 C          -3.0586    1.2927   -1.2398 C.2     1  UNL11       0.1192
     16 N          -2.4192    2.4718   -1.0813 N.2     1  UNL11      -0.0073
     17 N          -3.0076    3.6143   -0.8253 N.am    1  UNL11      -0.0356
     18 C          -4.3362    3.7177   -0.6933 C.2     1  UNL11       0.4383
     19 O          -4.9508    4.7744   -0.4486 O.2     1  UNL11      -0.2116
     20 C          -5.0577    2.5333   -0.8475 C.ar    1  UNL11       0.1004
     21 C          -6.4274    2.5405   -0.7513 C.ar    1  UNL11      -0.0441
     22 C          -7.1591    1.3793   -0.9218 C.ar    1  UNL11      -0.0608
     23 C          -6.5011    0.1867   -1.1947 C.ar    1  UNL11      -0.0611
     24 C          -5.1303    0.1602   -1.2932 C.ar    1  UNL11      -0.0518
     25 C          -4.4339    1.3317   -1.1175 C.ar    1  UNL11       0.0192
     26 C          -1.7245   -0.4939    0.9013 C.ar    1  UNL11      -0.0555
     27 C          -0.7910   -0.7976    1.9025 C.ar    1  UNL11      -0.0254
     28 C           0.5460   -0.8680    1.6206 C.ar    1  UNL11       0.1374
     29 F           1.4139   -1.1636    2.6163 F       1  UNL11      -0.2046
     30 H           6.1406    2.5743   -1.3673 H       1  UNL11       0.0280
     31 H           6.2935    4.3088   -0.8713 H       1  UNL11       0.0280
     32 H           6.5297    2.9747    0.3395 H       1  UNL11       0.0280
     33 H           4.2306    5.4057    0.4540 H       1  UNL11       0.1402
     34 H           1.7848    4.7303    0.6982 H       1  UNL11       0.4865
     35 H           4.4643    1.1164   -1.9193 H       1  UNL11       0.0765
     36 H           4.7553    0.5134   -0.2758 H       1  UNL11       0.0765
     37 H           0.3729   -0.1570   -1.6459 H       1  UNL11       0.0629
     38 H          -2.8658   -0.7881   -1.8036 H       1  UNL11       0.0379
     39 H          -1.6161    0.2951   -2.3813 H       1  UNL11       0.0379
     40 H          -2.4668    4.5256   -0.7042 H       1  UNL11       0.4829
     41 H          -6.8971    3.4904   -0.5385 H       1  UNL11       0.0627
     42 H          -8.2526    1.4092   -0.8408 H       1  UNL11       0.0618
     43 H          -7.0664   -0.7250   -1.3327 H       1  UNL11       0.0618
     44 H          -4.5661   -0.7372   -1.5033 H       1  UNL11       0.0624
     45 H          -2.7418   -0.4562    1.2478 H       1  UNL11       0.0621
     46 H          -1.1415   -0.9810    2.9328 H       1  UNL11       0.0646
     47 H           1.5578    2.2931   -0.0437 H       1  UNL11       0.2362
@<TRIPOS>BOND
     1     1     2    1
     2     1    30    1
     3     1    31    1
     4     1    32    1
     5     2     3   ar
     6     3     4   ar
     7     3    33    1
     8     4     5   ar
     9     4    34    1
    10     5     6   ar
    11     6     7    1
    12     6     2   ar
    13     7     8    1
    14     7    35    1
    15     7    36    1
    16     8     9    1
    17     9    10    2
    18     9    11    1
    19    11    12   ar
    20    12    13   ar
    21    12    37    1
    22    13    14    1
    23    13    26   ar
    24    14    15    1
    25    14    38    1
    26    14    39    1
    27    15    16    2
    28    16    17    1
    29    17    18   am
    30    17    40    1
    31    18    19    2
    32    18    20    1
    33    20    21   ar
    34    21    22   ar
    35    21    41    1
    36    22    23   ar
    37    22    42    1
    38    23    24   ar
    39    23    43    1
    40    24    25   ar
    41    24    44    1
    42    25    15    1
    43    25    20   ar
    44    26    27   ar
    45    26    45    1
    46    27    28   ar
    47    27    46    1
    48    28    29    1
    49    28    11   ar
    50     5    47    1
@<TRIPOS>MOLECULE
*****
 47 50 0 0 0
SMALL
GASTEIGER

@<TRIPOS>ATOM
      1 C           0.9507    0.6011   -3.4814 C.3     1  UNL11      -0.0321
      2 C           1.5415   -0.7598   -3.6427 C.ar    1  UNL11       0.0427
      3 C           1.0030   -1.7700   -4.4007 C.ar    1  UNL11       0.1982
      4 N           1.8171   -2.8344   -4.2936 N.ar    1  UNL11      -0.1309
      5 N           2.8254   -2.4957   -3.4972 N.ar    1  UNL11      -0.1657
      6 C           2.7122   -1.2404   -3.0684 C.ar    1  UNL11       0.1195
      7 C           3.5546   -0.4167   -2.1935 C.3     1  UNL11       0.1381
      8 O           2.9339    0.0516   -1.0377 O.3     1  UNL11      -0.4547
      9 C           2.3913   -0.7071   -0.0244 C.2     1  UNL11       0.3424
     10 O           3.1578   -1.4763    0.5939 O.2     1  UNL11      -0.2448
     11 C           0.9762   -0.6382    0.3384 C.ar    1  UNL11       0.0943
     12 C           0.0395   -0.3429   -0.6158 C.ar    1  UNL11      -0.0414
     13 C          -1.3239   -0.2582   -0.3918 C.ar    1  UNL11      -0.0404
     14 C          -2.2736    0.0949   -1.4723 C.3     1  UNL11       0.0211
     15 C          -1.6720    0.3425   -2.7691 C.2     1  UNL11       0.1192
     16 N          -2.4695    0.6844   -3.8042 N.2     1  UNL11      -0.0073
     17 N          -2.0569    0.8931   -5.0303 N.am    1  UNL11      -0.0356
     18 C          -0.7682    0.7817   -5.3771 C.2     1  UNL11       0.4383
     19 O          -0.3178    0.9657   -6.5250 O.2     1  UNL11      -0.2116
     20 C           0.1106    0.4317   -4.3515 C.ar    1  UNL11       0.1004
     21 C           1.4552    0.3136   -4.6032 C.ar    1  UNL11      -0.0441
     22 C           2.3426   -0.0124   -3.5937 C.ar    1  UNL11      -0.0608
     23 C           1.8691   -0.2239   -2.3049 C.ar    1  UNL11      -0.0611
     24 C           0.5262   -0.1115   -2.0346 C.ar    1  UNL11      -0.0518
     25 C          -0.3280    0.2131   -3.0609 C.ar    1  UNL11       0.0192
     26 C          -1.7245   -0.4939    0.9013 C.ar    1  UNL11      -0.0555
     27 C          -0.7910   -0.7976    1.9025 C.ar    1  UNL11      -0.0254
     28 C           0.5460   -0.8680    1.6206 C.ar    1  UNL11       0.1374
     29 F           1.4139   -1.1636    2.6163 F       1  UNL11      -0.2046
     30 H           1.7724    1.3305   -3.3033 H       1  UNL11       0.0280
     31 H           0.4114    0.8876   -4.4120 H       1  UNL11       0.0280
     32 H           0.2611    0.6445   -2.6175 H       1  UNL11       0.0280
     33 H           0.0765   -1.7151   -4.9854 H       1  UNL11       0.1402
     34 H           1.6175   -3.7357   -4.7852 H       1  UNL11       0.4865
     35 H           4.4642   -1.0081   -1.9254 H       1  UNL11       0.0765
     36 H           3.9485    0.4819   -2.7396 H       1  UNL11       0.0765
     37 H           0.3729   -0.1570   -1.6459 H       1  UNL11       0.0629
     38 H          -2.9988    0.8735   -1.1437 H       1  UNL11       0.0379
     39 H          -2.9417   -0.8219   -1.5811 H       1  UNL11       0.0379
     40 H          -2.7191    1.1598   -5.8227 H       1  UNL11       0.4829
     41 H           1.7790    0.4876   -5.6196 H       1  UNL11       0.0627
     42 H           3.4126   -0.1008   -3.8182 H       1  UNL11       0.0618
     43 H           2.5571   -0.4759   -1.5092 H       1  UNL11       0.0618
     44 H           0.1020   -0.2646   -1.0525 H       1  UNL11       0.0624
     45 H          -2.7418   -0.4562    1.2478 H       1  UNL11       0.0621
     46 H          -1.1415   -0.9810    2.9328 H       1  UNL11       0.0646
     47 H           3.5649   -3.0986   -3.2542 H       1  UNL11       0.2362
@<TRIPOS>BOND
     1     1     2    1
     2     1    30    1
     3     1    31    1
     4     1    32    1
     5     2     3   ar
     6     3     4   ar
     7     3    33    1
     8     4     5   ar
     9     4    34    1
    10     5     6   ar
    11     6     7    1
    12     6     2   ar
    13     7     8    1
    14     7    35    1
    15     7    36    1
    16     8     9    1
    17     9    10    2
    18     9    11    1
    19    11    12   ar
    20    12    13   ar
    21    12    37    1
    22    13    14    1
    23    13    26   ar
    24    14    15    1
    25    14    38    1
    26    14    39    1
    27    15    16    2
    28    16    17    1
    29    17    18   am
    30    17    40    1
    31    18    19    2
    32    18    20    1
    33    20    21   ar
    34    21    22   ar
    35    21    41    1
    36    22    23   ar
    37    22    42    1
    38    23    24   ar
    39    23    43    1
    40    24    25   ar
    41    24    44    1
    42    25    15    1
    43    25    20   ar
    44    26    27   ar
    45    26    45    1
    46    27    28   ar
    47    27    46    1
    48    28    29    1
    49    28    11   ar
    50     5    47    1
@<TRIPOS>MOLECULE
*****
 47 50 0 0 0
SMALL
GASTEIGER

@<TRIPOS>ATOM
      1 C           4.8688   -1.8724   -1.6592 C.3     1  UNL11      -0.0321
      2 C           5.5440   -0.6034   -2.0605 C.ar    1  UNL11       0.0427
      3 C           6.6805   -0.5212   -2.8263 C.ar    1  UNL11       0.1982
      4 N           6.9796    0.7817   -2.9683 N.ar    1  UNL11      -0.1309
      5 N           6.0602    1.4829   -2.3136 N.ar    1  UNL11      -0.1657
      6 C           5.1567    0.6919   -1.7387 C.ar    1  UNL11       0.1195
      7 C           3.9679    0.9785   -0.9275 C.3     1  UNL11       0.1381
      8 O           2.9339    0.0516   -1.0377 O.3     1  UNL11      -0.4547
      9 C           2.3913   -0.7071   -0.0244 C.2     1  UNL11       0.3424
     10 O           3.1578   -1.4763    0.5939 O.2     1  UNL11      -0.2448
     11 C           0.9762   -0.6382    0.3384 C.ar    1  UNL11       0.0943
     12 C           0.0395   -0.3429   -0.6158 C.ar    1  UNL11      -0.0414
     13 C          -1.3239   -0.2582   -0.3918 C.ar    1  UNL11      -0.0404
     14 C          -2.2736    0.0949   -1.4723 C.3     1  UNL11       0.0211
     15 C          -2.2941   -0.8164   -2.6010 C.2     1  UNL11       0.1192
     16 N          -1.4729   -1.8887   -2.5893 N.2     1  UNL11      -0.0073
     17 N          -1.3661   -2.7609   -3.5615 N.am    1  UNL11      -0.0356
     18 C          -2.0831   -2.6631   -4.6883 C.2     1  UNL11       0.4383
     19 O          -2.0229   -3.4591   -5.6459 O.2     1  UNL11      -0.2116
     20 C          -2.9543   -1.5758   -4.7636 C.ar    1  UNL11       0.1004
     21 C          -3.7480   -1.4010   -5.8704 C.ar    1  UNL11      -0.0441
     22 C          -4.6317   -0.3403   -5.9524 C.ar    1  UNL11      -0.0608
     23 C          -4.7197    0.5631   -4.9008 C.ar    1  UNL11      -0.0611
     24 C          -3.9319    0.4049   -3.7856 C.ar    1  UNL11      -0.0518
     25 C          -3.0642   -0.6595   -3.7370 C.ar    1  UNL11       0.0192
     26 C          -1.7245   -0.4939    0.9013 C.ar    1  UNL11      -0.0555
     27 C          -0.7910   -0.7976    1.9025 C.ar    1  UNL11      -0.0254
     28 C           0.5460   -0.8680    1.6206 C.ar    1  UNL11       0.1374
     29 F           1.4139   -1.1636    2.6163 F       1  UNL11      -0.2046
     30 H           3.7797   -1.6770   -1.5383 H       1  UNL11       0.0280
     31 H           5.0104   -2.6390   -2.4537 H       1  UNL11       0.0280
     32 H           5.2576   -2.2519   -0.6956 H       1  UNL11       0.0280
     33 H           7.2403   -1.3670   -3.2441 H       1  UNL11       0.1402
     34 H           7.8110    1.1024   -3.5159 H       1  UNL11       0.4865
     35 H           4.2862    1.0702    0.1400 H       1  UNL11       0.0765
     36 H           3.5351    1.9825   -1.1840 H       1  UNL11       0.0765
     37 H           0.3729   -0.1570   -1.6459 H       1  UNL11       0.0629
     38 H          -2.1993    1.1710   -1.7491 H       1  UNL11       0.0379
     39 H          -3.3010    0.0457   -0.9818 H       1  UNL11       0.0379
     40 H          -0.7031   -3.5950   -3.5159 H       1  UNL11       0.4829
     41 H          -3.6468   -2.1281   -6.6637 H       1  UNL11       0.0627
     42 H          -5.2561   -0.2210   -6.8463 H       1  UNL11       0.0618
     43 H          -5.4107    1.3934   -4.9558 H       1  UNL11       0.0618
     44 H          -3.9580    1.0756   -2.9386 H       1  UNL11       0.0624
     45 H          -2.7418   -0.4562    1.2478 H       1  UNL11       0.0621
     46 H          -1.1415   -0.9810    2.9328 H       1  UNL11       0.0646
     47 H           6.0486    2.4659   -2.2601 H       1  UNL11       0.2362
@<TRIPOS>BOND
     1     1     2    1
     2     1    30    1
     3     1    31    1
     4     1    32    1
     5     2     3   ar
     6     3     4   ar
     7     3    33    1
     8     4     5   ar
     9     4    34    1
    10     5     6   ar
    11     6     7    1
    12     6     2   ar
    13     7     8    1
    14     7    35    1
    15     7    36    1
    16     8     9    1
    17     9    10    2
    18     9    11    1
    19    11    12   ar
    20    12    13   ar
    21    12    37    1
    22    13    14    1
    23    13    26   ar
    24    14    15    1
    25    14    38    1
    26    14    39    1
    27    15    16    2
    28    16    17    1
    29    17    18   am
    30    17    40    1
    31    18    19    2
    32    18    20    1
    33    20    21   ar
    34    21    22   ar
    35    21    41    1
    36    22    23   ar
    37    22    42    1
    38    23    24   ar
    39    23    43    1
    40    24    25   ar
    41    24    44    1
    42    25    15    1
    43    25    20   ar
    44    26    27   ar
    45    26    45    1
    46    27    28   ar
    47    27    46    1
    48    28    29    1
    49    28    11   ar
    50     5    47    1
