@<TRIPOS>MOLECULE
*****
 43 45 0 0 0
SMALL
GASTEIGER

@<TRIPOS>ATOM
      1 O           1.9355    0.7409    1.0437 O.2     1  UNL11      -0.2687
      2 C           1.0039    0.3934    0.2653 C.2     1  UNL11       0.2602
      3 N           1.2538   -0.6138   -0.6977 N.am    1  UNL11      -0.2301
      4 N           0.2484   -1.0227   -1.5965 N.am    1  UNL11      -0.2300
      5 C          -0.7038   -0.0663   -1.9559 C.2     1  UNL11       0.2629
      6 O          -0.6401    1.1276   -1.4714 O.2     1  UNL11      -0.2686
      7 C          -1.7947   -0.3443   -2.8684 C.ar    1  UNL11       0.0733
      8 C          -2.3067   -1.6505   -2.9351 C.ar    1  UNL11      -0.0468
      9 C          -3.3173   -1.9431   -3.7867 C.ar    1  UNL11      -0.0609
     10 C          -3.9072   -1.0176   -4.6281 C.ar    1  UNL11      -0.0590
     11 C          -3.4107    0.2677   -4.5687 C.ar    1  UNL11      -0.0257
     12 C          -2.3650    0.5839   -3.6920 C.ar    1  UNL11       0.1355
     13 F          -1.9664    1.8719   -3.7072 F       1  UNL11      -0.2047
     14 C          -0.2833    1.0440    0.3959 C.ar    1  UNL11       0.0400
     15 C          -0.5061    2.0270    1.3469 C.ar    1  UNL11      -0.0495
     16 C          -1.7253    2.6497    1.4703 C.ar    1  UNL11      -0.0592
     17 C          -2.7358    2.2782    0.6248 C.ar    1  UNL11      -0.0364
     18 C          -2.5805    1.3085   -0.3412 C.ar    1  UNL11       0.0943
     19 S          -3.9094    0.9137   -1.3735 S.O2    1  UNL11       0.0252
     20 O          -5.1153    1.7573   -1.0247 O.2     1  UNL11      -0.1643
     21 O          -3.5908    1.2140   -2.8314 O.2     1  UNL11      -0.1643
     22 C          -4.3885   -0.7522   -1.2406 C.ar    1  UNL11       0.0963
     23 C          -5.4461   -1.1626   -2.0513 C.ar    1  UNL11      -0.0363
     24 C          -5.9116   -2.4599   -2.0126 C.ar    1  UNL11      -0.0572
     25 C          -5.3193   -3.3653   -1.1560 C.ar    1  UNL11      -0.0263
     26 C          -4.2748   -2.9415   -0.3619 C.ar    1  UNL11       0.1252
     27 F          -3.6795   -3.8143    0.4891 F       1  UNL11      -0.2054
     28 C          -3.7873   -1.6525   -0.3784 C.ar    1  UNL11      -0.0012
     29 C          -1.3493    0.7015   -0.4423 C.ar    1  UNL11      -0.0243
     30 H           2.1777   -1.0863   -0.7762 H       1  UNL11       0.1731
     31 H           0.2548   -1.9741   -1.9328 H       1  UNL11       0.1731
     32 H          -1.8461   -2.3874   -2.2739 H       1  UNL11       0.0626
     33 H          -3.6838   -2.9813   -3.8029 H       1  UNL11       0.0618
     34 H          -4.7095   -1.3316   -5.2798 H       1  UNL11       0.0618
     35 H          -3.8221    1.0272   -5.1913 H       1  UNL11       0.0646
     36 H           0.2933    2.3285    2.0243 H       1  UNL11       0.0625
     37 H          -1.8601    3.4023    2.2154 H       1  UNL11       0.0618
     38 H          -3.7048    2.7855    0.7370 H       1  UNL11       0.0637
     39 H          -5.9353   -0.4829   -2.7363 H       1  UNL11       0.0637
     40 H          -6.7444   -2.7898   -2.6494 H       1  UNL11       0.0619
     41 H          -5.6611   -4.4018   -1.0974 H       1  UNL11       0.0646
     42 H          -2.9606   -1.3096    0.2482 H       1  UNL11       0.0665
     43 H          -1.1629   -0.0719   -1.1864 H       1  UNL11       0.0644
@<TRIPOS>BOND
     1     1     2    2
     2     2     3   am
     3     2    14    1
     4     3     4    1
     5     3    30    1
     6     4     5   am
     7     4    31    1
     8     5     6    2
     9     5     7    1
    10     7     8   ar
    11     8     9   ar
    12     8    32    1
    13     9    10   ar
    14     9    33    1
    15    10    11   ar
    16    10    34    1
    17    11    12   ar
    18    11    35    1
    19    12    13    1
    20    12     7   ar
    21    14    15   ar
    22    15    16   ar
    23    15    36    1
    24    16    17   ar
    25    16    37    1
    26    17    18   ar
    27    17    38    1
    28    18    19    1
    29    18    29   ar
    30    19    20    2
    31    19    21    2
    32    19    22    1
    33    22    23   ar
    34    23    24   ar
    35    23    39    1
    36    24    25   ar
    37    24    40    1
    38    25    26   ar
    39    25    41    1
    40    26    27    1
    41    26    28   ar
    42    28    22   ar
    43    28    42    1
    44    29    14   ar
    45    29    43    1
@<TRIPOS>MOLECULE
*****
 43 45 0 0 0
SMALL
GASTEIGER

@<TRIPOS>ATOM
      1 O           1.7261    0.2762    1.2946 O.2     1  UNL11      -0.2687
      2 C           1.0039    0.3934    0.2653 C.2     1  UNL11       0.2602
      3 N           1.4788   -0.1145   -0.9680 N.am    1  UNL11      -0.2301
      4 N           0.7133    0.0072   -2.1449 N.am    1  UNL11      -0.2300
      5 C           0.8660   -0.9966   -3.1037 C.2     1  UNL11       0.2629
      6 O           0.2068   -0.9426   -4.2112 O.2     1  UNL11      -0.2686
      7 C           1.7477   -2.1323   -2.9223 C.ar    1  UNL11       0.0733
      8 C           2.3452   -2.7141   -4.0525 C.ar    1  UNL11      -0.0468
      9 C           3.1637   -3.7834   -3.9155 C.ar    1  UNL11      -0.0609
     10 C           3.4685   -4.3688   -2.7003 C.ar    1  UNL11      -0.0590
     11 C           2.8863   -3.8035   -1.5852 C.ar    1  UNL11      -0.0257
     12 C           2.0372   -2.6967   -1.7129 C.ar    1  UNL11       0.1355
     13 F           1.5333   -2.2175   -0.5577 F       1  UNL11      -0.2047
     14 C          -0.2833    1.0440    0.3959 C.ar    1  UNL11       0.0400
     15 C          -0.5061    2.0270    1.3469 C.ar    1  UNL11      -0.0495
     16 C          -1.7253    2.6497    1.4703 C.ar    1  UNL11      -0.0592
     17 C          -2.7358    2.2782    0.6248 C.ar    1  UNL11      -0.0364
     18 C          -2.5805    1.3085   -0.3412 C.ar    1  UNL11       0.0943
     19 S          -3.9094    0.9137   -1.3735 S.O2    1  UNL11       0.0252
     20 O          -4.7331   -0.2008   -0.7678 O.2     1  UNL11      -0.1643
     21 O          -4.8548    2.0950   -1.5413 O.2     1  UNL11      -0.1643
     22 C          -3.3991    0.3818   -2.9480 C.ar    1  UNL11       0.0963
     23 C          -3.7841   -0.9039   -3.3260 C.ar    1  UNL11      -0.0363
     24 C          -3.4198   -1.4260   -4.5491 C.ar    1  UNL11      -0.0572
     25 C          -2.6611   -0.6613   -5.4116 C.ar    1  UNL11      -0.0263
     26 C          -2.2896    0.6077   -5.0207 C.ar    1  UNL11       0.1252
     27 F          -1.5418    1.3759   -5.8520 F       1  UNL11      -0.2054
     28 C          -2.6385    1.1570   -3.8058 C.ar    1  UNL11      -0.0012
     29 C          -1.3493    0.7015   -0.4423 C.ar    1  UNL11      -0.0243
     30 H           2.3991   -0.5930   -1.0509 H       1  UNL11       0.1731
     31 H           0.1016    0.8034   -2.2465 H       1  UNL11       0.1731
     32 H           2.1094   -2.2578   -5.0161 H       1  UNL11       0.0626
     33 H           3.6075   -4.2044   -4.8311 H       1  UNL11       0.0618
     34 H           4.1308   -5.2219   -2.6758 H       1  UNL11       0.0618
     35 H           3.0809   -4.2077   -0.6195 H       1  UNL11       0.0646
     36 H           0.2933    2.3285    2.0243 H       1  UNL11       0.0625
     37 H          -1.8601    3.4023    2.2154 H       1  UNL11       0.0618
     38 H          -3.7048    2.7855    0.7370 H       1  UNL11       0.0637
     39 H          -4.3797   -1.5334   -2.6783 H       1  UNL11       0.0637
     40 H          -3.7204   -2.4384   -4.8532 H       1  UNL11       0.0619
     41 H          -2.3530   -1.0412   -6.3890 H       1  UNL11       0.0646
     42 H          -2.3474    2.1615   -3.4893 H       1  UNL11       0.0665
     43 H          -1.1629   -0.0719   -1.1864 H       1  UNL11       0.0644
@<TRIPOS>BOND
     1     1     2    2
     2     2     3   am
     3     2    14    1
     4     3     4    1
     5     3    30    1
     6     4     5   am
     7     4    31    1
     8     5     6    2
     9     5     7    1
    10     7     8   ar
    11     8     9   ar
    12     8    32    1
    13     9    10   ar
    14     9    33    1
    15    10    11   ar
    16    10    34    1
    17    11    12   ar
    18    11    35    1
    19    12    13    1
    20    12     7   ar
    21    14    15   ar
    22    15    16   ar
    23    15    36    1
    24    16    17   ar
    25    16    37    1
    26    17    18   ar
    27    17    38    1
    28    18    19    1
    29    18    29   ar
    30    19    20    2
    31    19    21    2
    32    19    22    1
    33    22    23   ar
    34    23    24   ar
    35    23    39    1
    36    24    25   ar
    37    24    40    1
    38    25    26   ar
    39    25    41    1
    40    26    27    1
    41    26    28   ar
    42    28    22   ar
    43    28    42    1
    44    29    14   ar
    45    29    43    1
@<TRIPOS>MOLECULE
*****
 43 45 0 0 0
SMALL
GASTEIGER

@<TRIPOS>ATOM
      1 O           1.7261    0.2762    1.2946 O.2     1  UNL11      -0.2687
      2 C           1.0039    0.3934    0.2653 C.2     1  UNL11       0.2602
      3 N           1.4788   -0.1145   -0.9680 N.am    1  UNL11      -0.2301
      4 N           0.7133    0.0072   -2.1449 N.am    1  UNL11      -0.2300
      5 C          -0.1364    1.1120   -2.2336 C.2     1  UNL11       0.2629
      6 O          -0.8768    1.2797   -3.2766 O.2     1  UNL11      -0.2686
      7 C          -0.2381    2.1139   -1.1915 C.ar    1  UNL11       0.0733
      8 C           0.5502    1.9743   -0.0375 C.ar    1  UNL11      -0.0468
      9 C           0.4679    2.8877    0.9580 C.ar    1  UNL11      -0.0609
     10 C          -0.3654    3.9909    0.9235 C.ar    1  UNL11      -0.0590
     11 C          -1.1428    4.1358   -0.2064 C.ar    1  UNL11      -0.0257
     12 C          -1.0674    3.1977   -1.2439 C.ar    1  UNL11       0.1355
     13 F          -1.8615    3.4437   -2.3054 F       1  UNL11      -0.2047
     14 C          -0.2833    1.0440    0.3959 C.ar    1  UNL11       0.0400
     15 C          -0.5061    2.0270    1.3469 C.ar    1  UNL11      -0.0495
     16 C          -1.7253    2.6497    1.4703 C.ar    1  UNL11      -0.0592
     17 C          -2.7358    2.2782    0.6248 C.ar    1  UNL11      -0.0364
     18 C          -2.5805    1.3085   -0.3412 C.ar    1  UNL11       0.0943
     19 S          -3.9094    0.9137   -1.3735 S.O2    1  UNL11       0.0252
     20 O          -4.2805   -0.5444   -1.2190 O.2     1  UNL11      -0.1643
     21 O          -5.1550    1.7082   -1.0068 O.2     1  UNL11      -0.1643
     22 C          -3.5540    1.1810   -3.0542 C.ar    1  UNL11       0.0963
     23 C          -2.4975    0.4467   -3.5917 C.ar    1  UNL11      -0.0363
     24 C          -2.1261    0.5943   -4.9113 C.ar    1  UNL11      -0.0572
     25 C          -2.8130    1.4845   -5.7114 C.ar    1  UNL11      -0.0263
     26 C          -3.8548    2.2018   -5.1626 C.ar    1  UNL11       0.1252
     27 F          -4.5422    3.0841   -5.9303 F       1  UNL11      -0.2054
     28 C          -4.2495    2.0761   -3.8481 C.ar    1  UNL11      -0.0012
     29 C          -1.3493    0.7015   -0.4423 C.ar    1  UNL11      -0.0243
     30 H           2.3991   -0.5930   -1.0509 H       1  UNL11       0.1731
     31 H           0.8051   -0.6994   -2.8594 H       1  UNL11       0.1731
     32 H           1.2109    1.1056   -0.0024 H       1  UNL11       0.0626
     33 H           1.1055    2.7343    1.8425 H       1  UNL11       0.0618
     34 H          -0.3733    4.6737    1.7606 H       1  UNL11       0.0618
     35 H          -1.8056    4.9644   -0.2945 H       1  UNL11       0.0646
     36 H           0.2933    2.3285    2.0243 H       1  UNL11       0.0625
     37 H          -1.8601    3.4023    2.2154 H       1  UNL11       0.0618
     38 H          -3.7048    2.7855    0.7370 H       1  UNL11       0.0637
     39 H          -1.9358   -0.2615   -2.9971 H       1  UNL11       0.0637
     40 H          -1.2947    0.0182   -5.3412 H       1  UNL11       0.0619
     41 H          -2.5474    1.6287   -6.7617 H       1  UNL11       0.0646
     42 H          -5.0736    2.6414   -3.4065 H       1  UNL11       0.0665
     43 H          -1.1629   -0.0719   -1.1864 H       1  UNL11       0.0644
@<TRIPOS>BOND
     1     1     2    2
     2     2     3   am
     3     2    14    1
     4     3     4    1
     5     3    30    1
     6     4     5   am
     7     4    31    1
     8     5     6    2
     9     5     7    1
    10     7     8   ar
    11     8     9   ar
    12     8    32    1
    13     9    10   ar
    14     9    33    1
    15    10    11   ar
    16    10    34    1
    17    11    12   ar
    18    11    35    1
    19    12    13    1
    20    12     7   ar
    21    14    15   ar
    22    15    16   ar
    23    15    36    1
    24    16    17   ar
    25    16    37    1
    26    17    18   ar
    27    17    38    1
    28    18    19    1
    29    18    29   ar
    30    19    20    2
    31    19    21    2
    32    19    22    1
    33    22    23   ar
    34    23    24   ar
    35    23    39    1
    36    24    25   ar
    37    24    40    1
    38    25    26   ar
    39    25    41    1
    40    26    27    1
    41    26    28   ar
    42    28    22   ar
    43    28    42    1
    44    29    14   ar
    45    29    43    1
@<TRIPOS>MOLECULE
*****
 43 45 0 0 0
SMALL
GASTEIGER

@<TRIPOS>ATOM
      1 O           1.3572   -0.0180   -0.8751 O.2     1  UNL11      -0.2687
      2 C           1.0039    0.3934    0.2653 C.2     1  UNL11       0.2602
      3 N           1.8764    0.2041    1.3641 N.am    1  UNL11      -0.2301
      4 N           3.1227   -0.4327    1.1985 N.am    1  UNL11      -0.2300
      5 C           4.1522   -0.0373    2.0554 C.2     1  UNL11       0.2629
      6 O           5.3233   -0.5680    1.9517 O.2     1  UNL11      -0.2686
      7 C           3.9773    0.9645    3.0878 C.ar    1  UNL11       0.0733
      8 C           5.0757    1.7596    3.4541 C.ar    1  UNL11      -0.0468
      9 C           4.9459    2.6951    4.4236 C.ar    1  UNL11      -0.0609
     10 C           3.7683    2.9372    5.1071 C.ar    1  UNL11      -0.0590
     11 C           2.6845    2.1610    4.7535 C.ar    1  UNL11      -0.0257
     12 C           2.8053    1.1892    3.7518 C.ar    1  UNL11       0.1355
     13 F           1.6808    0.4972    3.4782 F       1  UNL11      -0.2047
     14 C          -0.2833    1.0440    0.3959 C.ar    1  UNL11       0.0400
     15 C          -0.5061    2.0270    1.3469 C.ar    1  UNL11      -0.0495
     16 C          -1.7253    2.6497    1.4703 C.ar    1  UNL11      -0.0592
     17 C          -2.7358    2.2782    0.6248 C.ar    1  UNL11      -0.0364
     18 C          -2.5805    1.3085   -0.3412 C.ar    1  UNL11       0.0943
     19 S          -3.9094    0.9137   -1.3735 S.O2    1  UNL11       0.0252
     20 O          -3.8367   -0.5376   -1.7930 O.2     1  UNL11      -0.1643
     21 O          -5.2413    1.0801   -0.6555 O.2     1  UNL11      -0.1643
     22 C          -3.9368    1.8701   -2.8250 C.ar    1  UNL11       0.0963
     23 C          -4.6549    3.0641   -2.7706 C.ar    1  UNL11      -0.0363
     24 C          -4.7499    3.8892   -3.8712 C.ar    1  UNL11      -0.0572
     25 C          -4.1230    3.5246   -5.0453 C.ar    1  UNL11      -0.0263
     26 C          -3.4175    2.3405   -5.0805 C.ar    1  UNL11       0.1252
     27 F          -2.7955    1.9616   -6.2250 F       1  UNL11      -0.2054
     28 C          -3.3041    1.4956   -3.9975 C.ar    1  UNL11      -0.0012
     29 C          -1.3493    0.7015   -0.4423 C.ar    1  UNL11      -0.0243
     30 H           1.6327    0.5221    2.3244 H       1  UNL11       0.1731
     31 H           3.2192   -1.1314    0.4769 H       1  UNL11       0.1731
     32 H           6.0095    1.5746    2.9192 H       1  UNL11       0.0626
     33 H           5.8357    3.2928    4.6756 H       1  UNL11       0.0618
     34 H           3.7472    3.7023    5.8694 H       1  UNL11       0.0618
     35 H           1.7486    2.2982    5.2423 H       1  UNL11       0.0646
     36 H           0.2933    2.3285    2.0243 H       1  UNL11       0.0625
     37 H          -1.8601    3.4023    2.2154 H       1  UNL11       0.0618
     38 H          -3.7048    2.7855    0.7370 H       1  UNL11       0.0637
     39 H          -5.1588    3.3848   -1.8684 H       1  UNL11       0.0637
     40 H          -5.3138    4.8317   -3.8347 H       1  UNL11       0.0619
     41 H          -4.1762    4.1526   -5.9384 H       1  UNL11       0.0646
     42 H          -2.7473    0.5558   -4.0182 H       1  UNL11       0.0665
     43 H          -1.1629   -0.0719   -1.1864 H       1  UNL11       0.0644
@<TRIPOS>BOND
     1     1     2    2
     2     2     3   am
     3     2    14    1
     4     3     4    1
     5     3    30    1
     6     4     5   am
     7     4    31    1
     8     5     6    2
     9     5     7    1
    10     7     8   ar
    11     8     9   ar
    12     8    32    1
    13     9    10   ar
    14     9    33    1
    15    10    11   ar
    16    10    34    1
    17    11    12   ar
    18    11    35    1
    19    12    13    1
    20    12     7   ar
    21    14    15   ar
    22    15    16   ar
    23    15    36    1
    24    16    17   ar
    25    16    37    1
    26    17    18   ar
    27    17    38    1
    28    18    19    1
    29    18    29   ar
    30    19    20    2
    31    19    21    2
    32    19    22    1
    33    22    23   ar
    34    23    24   ar
    35    23    39    1
    36    24    25   ar
    37    24    40    1
    38    25    26   ar
    39    25    41    1
    40    26    27    1
    41    26    28   ar
    42    28    22   ar
    43    28    42    1
    44    29    14   ar
    45    29    43    1
@<TRIPOS>MOLECULE
*****
 43 45 0 0 0
SMALL
GASTEIGER

@<TRIPOS>ATOM
      1 O           1.9355    0.7409    1.0437 O.2     1  UNL11      -0.2687
      2 C           1.0039    0.3934    0.2653 C.2     1  UNL11       0.2602
      3 N           1.2538   -0.6138   -0.6977 N.am    1  UNL11      -0.2301
      4 N           2.5196   -1.2258   -0.7946 N.am    1  UNL11      -0.2300
      5 C           3.2696   -1.3139    0.3802 C.2     1  UNL11       0.2629
      6 O           4.4429   -1.8496    0.3629 O.2     1  UNL11      -0.2686
      7 C           2.7925   -0.8253    1.6583 C.ar    1  UNL11       0.0733
      8 C           3.7263   -0.3525    2.5949 C.ar    1  UNL11      -0.0468
      9 C           3.3116    0.0987    3.8018 C.ar    1  UNL11      -0.0609
     10 C           1.9870    0.1312    4.1978 C.ar    1  UNL11      -0.0590
     11 C           1.0633   -0.3310    3.2840 C.ar    1  UNL11      -0.0257
     12 C           1.4791   -0.8008    2.0315 C.ar    1  UNL11       0.1355
     13 F           0.4919   -1.2169    1.2127 F       1  UNL11      -0.2047
     14 C          -0.2833    1.0440    0.3959 C.ar    1  UNL11       0.0400
     15 C          -0.5061    2.0270    1.3469 C.ar    1  UNL11      -0.0495
     16 C          -1.7253    2.6497    1.4703 C.ar    1  UNL11      -0.0592
     17 C          -2.7358    2.2782    0.6248 C.ar    1  UNL11      -0.0364
     18 C          -2.5805    1.3085   -0.3412 C.ar    1  UNL11       0.0943
     19 S          -3.9094    0.9137   -1.3735 S.O2    1  UNL11       0.0252
     20 O          -3.8849    1.7760   -2.6158 O.2     1  UNL11      -0.1643
     21 O          -3.8301   -0.5274   -1.8575 O.2     1  UNL11      -0.1643
     22 C          -5.4496    1.1584   -0.6053 C.ar    1  UNL11       0.0963
     23 C          -5.5101    2.1591    0.3638 C.ar    1  UNL11      -0.0363
     24 C          -6.6811    2.4245    1.0417 C.ar    1  UNL11      -0.0572
     25 C          -7.8107    1.6857    0.7546 C.ar    1  UNL11      -0.0263
     26 C          -7.7320    0.7003   -0.2067 C.ar    1  UNL11       0.1252
     27 F          -8.8297   -0.0397   -0.5031 F       1  UNL11      -0.2054
     28 C          -6.5769    0.4120   -0.9010 C.ar    1  UNL11      -0.0012
     29 C          -1.3493    0.7015   -0.4423 C.ar    1  UNL11      -0.0243
     30 H           0.5219   -0.9352   -1.3640 H       1  UNL11       0.1731
     31 H           2.8282   -1.5638   -1.6939 H       1  UNL11       0.1731
     32 H           4.7746   -0.3750    2.2899 H       1  UNL11       0.0626
     33 H           4.0816    0.4585    4.5019 H       1  UNL11       0.0618
     34 H           1.7380    0.5058    5.1800 H       1  UNL11       0.0618
     35 H           0.0269   -0.3324    3.5281 H       1  UNL11       0.0646
     36 H           0.2933    2.3285    2.0243 H       1  UNL11       0.0625
     37 H          -1.8601    3.4023    2.2154 H       1  UNL11       0.0618
     38 H          -3.7048    2.7855    0.7370 H       1  UNL11       0.0637
     39 H          -4.6467    2.7603    0.6161 H       1  UNL11       0.0637
     40 H          -6.7356    3.2122    1.8062 H       1  UNL11       0.0619
     41 H          -8.7567    1.8669    1.2712 H       1  UNL11       0.0646
     42 H          -6.5071   -0.3675   -1.6634 H       1  UNL11       0.0665
     43 H          -1.1629   -0.0719   -1.1864 H       1  UNL11       0.0644
@<TRIPOS>BOND
     1     1     2    2
     2     2     3   am
     3     2    14    1
     4     3     4    1
     5     3    30    1
     6     4     5   am
     7     4    31    1
     8     5     6    2
     9     5     7    1
    10     7     8   ar
    11     8     9   ar
    12     8    32    1
    13     9    10   ar
    14     9    33    1
    15    10    11   ar
    16    10    34    1
    17    11    12   ar
    18    11    35    1
    19    12    13    1
    20    12     7   ar
    21    14    15   ar
    22    15    16   ar
    23    15    36    1
    24    16    17   ar
    25    16    37    1
    26    17    18   ar
    27    17    38    1
    28    18    19    1
    29    18    29   ar
    30    19    20    2
    31    19    21    2
    32    19    22    1
    33    22    23   ar
    34    23    24   ar
    35    23    39    1
    36    24    25   ar
    37    24    40    1
    38    25    26   ar
    39    25    41    1
    40    26    27    1
    41    26    28   ar
    42    28    22   ar
    43    28    42    1
    44    29    14   ar
    45    29    43    1
@<TRIPOS>MOLECULE
*****
 43 45 0 0 0
SMALL
GASTEIGER

@<TRIPOS>ATOM
      1 O           1.7261    0.2762    1.2946 O.2     1  UNL11      -0.2687
      2 C           1.0039    0.3934    0.2653 C.2     1  UNL11       0.2602
      3 N           1.4788   -0.1145   -0.9680 N.am    1  UNL11      -0.2301
      4 N           2.7370   -0.7430   -1.0566 N.am    1  UNL11      -0.2300
      5 C           3.1937   -1.4049    0.0853 C.2     1  UNL11       0.2629
      6 O           4.3429   -1.9908    0.0804 O.2     1  UNL11      -0.2686
      7 C           2.4285   -1.4764    1.3139 C.ar    1  UNL11       0.0733
      8 C           1.0260   -1.4543    1.2415 C.ar    1  UNL11      -0.0468
      9 C           0.2848   -1.5074    2.3728 C.ar    1  UNL11      -0.0609
     10 C           0.8245   -1.5852    3.6437 C.ar    1  UNL11      -0.0590
     11 C           2.2011   -1.6078    3.7239 C.ar    1  UNL11      -0.0257
     12 C           2.9800   -1.5533    2.5609 C.ar    1  UNL11       0.1355
     13 F           4.3136   -1.5942    2.7550 F       1  UNL11      -0.2047
     14 C          -0.2833    1.0440    0.3959 C.ar    1  UNL11       0.0400
     15 C          -0.5061    2.0270    1.3469 C.ar    1  UNL11      -0.0495
     16 C          -1.7253    2.6497    1.4703 C.ar    1  UNL11      -0.0592
     17 C          -2.7358    2.2782    0.6248 C.ar    1  UNL11      -0.0364
     18 C          -2.5805    1.3085   -0.3412 C.ar    1  UNL11       0.0943
     19 S          -3.9094    0.9137   -1.3735 S.O2    1  UNL11       0.0252
     20 O          -5.1153    1.7573   -1.0247 O.2     1  UNL11      -0.1643
     21 O          -3.5908    1.2140   -2.8314 O.2     1  UNL11      -0.1643
     22 C          -4.3885   -0.7522   -1.2406 C.ar    1  UNL11       0.0963
     23 C          -4.3176   -1.5154   -2.4054 C.ar    1  UNL11      -0.0363
     24 C          -4.6872   -2.8437   -2.4104 C.ar    1  UNL11      -0.0572
     25 C          -5.1348   -3.4252   -1.2416 C.ar    1  UNL11      -0.0263
     26 C          -5.1982   -2.6550   -0.0997 C.ar    1  UNL11       0.1252
     27 F          -5.6374   -3.2057    1.0597 F       1  UNL11      -0.2054
     28 C          -4.8356   -1.3259   -0.0632 C.ar    1  UNL11      -0.0012
     29 C          -1.3493    0.7015   -0.4423 C.ar    1  UNL11      -0.0243
     30 H           0.9245   -0.0419   -1.8457 H       1  UNL11       0.1731
     31 H           3.2490   -0.6850   -1.9242 H       1  UNL11       0.1731
     32 H           0.5919   -1.3927    0.2414 H       1  UNL11       0.0626
     33 H          -0.8107   -1.4866    2.2641 H       1  UNL11       0.0618
     34 H           0.1635   -1.6229    4.4973 H       1  UNL11       0.0618
     35 H           2.6787   -1.6670    4.6737 H       1  UNL11       0.0646
     36 H           0.2933    2.3285    2.0243 H       1  UNL11       0.0625
     37 H          -1.8601    3.4023    2.2154 H       1  UNL11       0.0618
     38 H          -3.7048    2.7855    0.7370 H       1  UNL11       0.0637
     39 H          -3.9709   -1.0960   -3.3406 H       1  UNL11       0.0637
     40 H          -4.6332   -3.4508   -3.3248 H       1  UNL11       0.0619
     41 H          -5.4368   -4.4751   -1.2068 H       1  UNL11       0.0646
     42 H          -4.8837   -0.7095    0.8377 H       1  UNL11       0.0665
     43 H          -1.1629   -0.0719   -1.1864 H       1  UNL11       0.0644
@<TRIPOS>BOND
     1     1     2    2
     2     2     3   am
     3     2    14    1
     4     3     4    1
     5     3    30    1
     6     4     5   am
     7     4    31    1
     8     5     6    2
     9     5     7    1
    10     7     8   ar
    11     8     9   ar
    12     8    32    1
    13     9    10   ar
    14     9    33    1
    15    10    11   ar
    16    10    34    1
    17    11    12   ar
    18    11    35    1
    19    12    13    1
    20    12     7   ar
    21    14    15   ar
    22    15    16   ar
    23    15    36    1
    24    16    17   ar
    25    16    37    1
    26    17    18   ar
    27    17    38    1
    28    18    19    1
    29    18    29   ar
    30    19    20    2
    31    19    21    2
    32    19    22    1
    33    22    23   ar
    34    23    24   ar
    35    23    39    1
    36    24    25   ar
    37    24    40    1
    38    25    26   ar
    39    25    41    1
    40    26    27    1
    41    26    28   ar
    42    28    22   ar
    43    28    42    1
    44    29    14   ar
    45    29    43    1
@<TRIPOS>MOLECULE
*****
 43 45 0 0 0
SMALL
GASTEIGER

@<TRIPOS>ATOM
      1 O           2.0411    1.0439    0.5749 O.2     1  UNL11      -0.2687
      2 C           1.0039    0.3934    0.2653 C.2     1  UNL11       0.2602
      3 N           1.1407   -0.9390   -0.1934 N.am    1  UNL11      -0.2301
      4 N           2.4104   -1.5399   -0.3064 N.am    1  UNL11      -0.2300
      5 C           3.4870   -0.6934   -0.5799 C.2     1  UNL11       0.2629
      6 O           4.6760   -1.1764   -0.7102 O.2     1  UNL11      -0.2686
      7 C           3.3439    0.7409   -0.7291 C.ar    1  UNL11       0.0733
      8 C           2.0681    1.3127   -0.5941 C.ar    1  UNL11      -0.0468
      9 C           1.9014    2.6480   -0.7402 C.ar    1  UNL11      -0.0609
     10 C           2.9318    3.5260   -1.0228 C.ar    1  UNL11      -0.0590
     11 C           4.1881    2.9729   -1.1567 C.ar    1  UNL11      -0.0257
     12 C           4.3744    1.5925   -1.0081 C.ar    1  UNL11       0.1355
     13 F           5.6444    1.1617   -1.1473 F       1  UNL11      -0.2047
     14 C          -0.2833    1.0440    0.3959 C.ar    1  UNL11       0.0400
     15 C          -0.5061    2.0270    1.3469 C.ar    1  UNL11      -0.0495
     16 C          -1.7253    2.6497    1.4703 C.ar    1  UNL11      -0.0592
     17 C          -2.7358    2.2782    0.6248 C.ar    1  UNL11      -0.0364
     18 C          -2.5805    1.3085   -0.3412 C.ar    1  UNL11       0.0943
     19 S          -3.9094    0.9137   -1.3735 S.O2    1  UNL11       0.0252
     20 O          -4.3361    2.1271   -2.1692 O.2     1  UNL11      -0.1643
     21 O          -3.5255   -0.1479   -2.3947 O.2     1  UNL11      -0.1643
     22 C          -5.3009    0.3592   -0.4911 C.ar    1  UNL11       0.0963
     23 C          -5.1766    0.3032    0.8966 C.ar    1  UNL11      -0.0363
     24 C          -6.2172   -0.1349    1.6880 C.ar    1  UNL11      -0.0572
     25 C          -7.4005   -0.5243    1.0942 C.ar    1  UNL11      -0.0263
     26 C          -7.5051   -0.4623   -0.2793 C.ar    1  UNL11       0.1252
     27 F          -8.6583   -0.8424   -0.8840 F       1  UNL11      -0.2054
     28 C          -6.4834   -0.0288   -1.0964 C.ar    1  UNL11      -0.0012
     29 C          -1.3493    0.7015   -0.4423 C.ar    1  UNL11      -0.0243
     30 H           0.3189   -1.5176   -0.4632 H       1  UNL11       0.1731
     31 H           2.4867   -2.5396   -0.1927 H       1  UNL11       0.1731
     32 H           1.2489    0.6260   -0.3711 H       1  UNL11       0.0626
     33 H           0.8822    3.0485   -0.6257 H       1  UNL11       0.0618
     34 H           2.7155    4.5794   -1.1253 H       1  UNL11       0.0618
     35 H           5.0240    3.5955   -1.3742 H       1  UNL11       0.0646
     36 H           0.2933    2.3285    2.0243 H       1  UNL11       0.0625
     37 H          -1.8601    3.4023    2.2154 H       1  UNL11       0.0618
     38 H          -3.7048    2.7855    0.7370 H       1  UNL11       0.0637
     39 H          -4.2659    0.6010    1.3991 H       1  UNL11       0.0637
     40 H          -6.1259   -0.1808    2.7822 H       1  UNL11       0.0619
     41 H          -8.2470   -0.8774    1.6885 H       1  UNL11       0.0646
     42 H          -6.5590    0.0226   -2.1852 H       1  UNL11       0.0665
     43 H          -1.1629   -0.0719   -1.1864 H       1  UNL11       0.0644
@<TRIPOS>BOND
     1     1     2    2
     2     2     3   am
     3     2    14    1
     4     3     4    1
     5     3    30    1
     6     4     5   am
     7     4    31    1
     8     5     6    2
     9     5     7    1
    10     7     8   ar
    11     8     9   ar
    12     8    32    1
    13     9    10   ar
    14     9    33    1
    15    10    11   ar
    16    10    34    1
    17    11    12   ar
    18    11    35    1
    19    12    13    1
    20    12     7   ar
    21    14    15   ar
    22    15    16   ar
    23    15    36    1
    24    16    17   ar
    25    16    37    1
    26    17    18   ar
    27    17    38    1
    28    18    19    1
    29    18    29   ar
    30    19    20    2
    31    19    21    2
    32    19    22    1
    33    22    23   ar
    34    23    24   ar
    35    23    39    1
    36    24    25   ar
    37    24    40    1
    38    25    26   ar
    39    25    41    1
    40    26    27    1
    41    26    28   ar
    42    28    22   ar
    43    28    42    1
    44    29    14   ar
    45    29    43    1
@<TRIPOS>MOLECULE
*****
 43 45 0 0 0
SMALL
GASTEIGER

@<TRIPOS>ATOM
      1 O           2.0411    1.0439    0.5749 O.2     1  UNL11      -0.2687
      2 C           1.0039    0.3934    0.2653 C.2     1  UNL11       0.2602
      3 N           1.1407   -0.9390   -0.1934 N.am    1  UNL11      -0.2301
      4 N           0.0121   -1.6974   -0.5639 N.am    1  UNL11      -0.2300
      5 C           0.0904   -3.0789   -0.3750 C.2     1  UNL11       0.2629
      6 O           1.1590   -3.6075    0.1176 O.2     1  UNL11      -0.2686
      7 C          -0.9910   -3.9830   -0.7116 C.ar    1  UNL11       0.0733
      8 C          -1.8576   -3.6418   -1.7629 C.ar    1  UNL11      -0.0468
      9 C          -2.8839   -4.4605   -2.0924 C.ar    1  UNL11      -0.0609
     10 C          -3.1542   -5.6537   -1.4477 C.ar    1  UNL11      -0.0590
     11 C          -2.3078   -5.9966   -0.4143 C.ar    1  UNL11      -0.0257
     12 C          -1.2419   -5.1583   -0.0631 C.ar    1  UNL11       0.1355
     13 F          -0.4713   -5.5967    0.9528 F       1  UNL11      -0.2047
     14 C          -0.2833    1.0440    0.3959 C.ar    1  UNL11       0.0400
     15 C          -0.5061    2.0270    1.3469 C.ar    1  UNL11      -0.0495
     16 C          -1.7253    2.6497    1.4703 C.ar    1  UNL11      -0.0592
     17 C          -2.7358    2.2782    0.6248 C.ar    1  UNL11      -0.0364
     18 C          -2.5805    1.3085   -0.3412 C.ar    1  UNL11       0.0943
     19 S          -3.9094    0.9137   -1.3735 S.O2    1  UNL11       0.0252
     20 O          -5.0878    0.4358   -0.5547 O.2     1  UNL11      -0.1643
     21 O          -4.3969    2.1321   -2.1449 O.2     1  UNL11      -0.1643
     22 C          -3.5244   -0.3457   -2.5084 C.ar    1  UNL11       0.0963
     23 C          -3.0103    0.0610   -3.7391 C.ar    1  UNL11      -0.0363
     24 C          -2.6848   -0.8581   -4.7141 C.ar    1  UNL11      -0.0572
     25 C          -2.8722   -2.2025   -4.4652 C.ar    1  UNL11      -0.0263
     26 C          -3.3816   -2.5859   -3.2426 C.ar    1  UNL11       0.1252
     27 F          -3.5761   -3.9021   -2.9776 F       1  UNL11      -0.2054
     28 C          -3.7158   -1.6915   -2.2487 C.ar    1  UNL11      -0.0012
     29 C          -1.3493    0.7015   -0.4423 C.ar    1  UNL11      -0.0243
     30 H           2.0683   -1.4041   -0.2714 H       1  UNL11       0.1731
     31 H          -0.7892   -1.2197   -0.9486 H       1  UNL11       0.1731
     32 H          -1.6512   -2.7008   -2.2771 H       1  UNL11       0.0626
     33 H          -3.5360   -4.1491   -2.9232 H       1  UNL11       0.0618
     34 H          -3.9946   -6.2506   -1.7709 H       1  UNL11       0.0618
     35 H          -2.4620   -6.9033    0.1223 H       1  UNL11       0.0646
     36 H           0.2933    2.3285    2.0243 H       1  UNL11       0.0625
     37 H          -1.8601    3.4023    2.2154 H       1  UNL11       0.0618
     38 H          -3.7048    2.7855    0.7370 H       1  UNL11       0.0637
     39 H          -2.8480    1.1052   -3.9714 H       1  UNL11       0.0637
     40 H          -2.2788   -0.5442   -5.6858 H       1  UNL11       0.0619
     41 H          -2.6262   -2.9602   -5.2135 H       1  UNL11       0.0646
     42 H          -4.1202   -1.9880   -1.2780 H       1  UNL11       0.0665
     43 H          -1.1629   -0.0719   -1.1864 H       1  UNL11       0.0644
@<TRIPOS>BOND
     1     1     2    2
     2     2     3   am
     3     2    14    1
     4     3     4    1
     5     3    30    1
     6     4     5   am
     7     4    31    1
     8     5     6    2
     9     5     7    1
    10     7     8   ar
    11     8     9   ar
    12     8    32    1
    13     9    10   ar
    14     9    33    1
    15    10    11   ar
    16    10    34    1
    17    11    12   ar
    18    11    35    1
    19    12    13    1
    20    12     7   ar
    21    14    15   ar
    22    15    16   ar
    23    15    36    1
    24    16    17   ar
    25    16    37    1
    26    17    18   ar
    27    17    38    1
    28    18    19    1
    29    18    29   ar
    30    19    20    2
    31    19    21    2
    32    19    22    1
    33    22    23   ar
    34    23    24   ar
    35    23    39    1
    36    24    25   ar
    37    24    40    1
    38    25    26   ar
    39    25    41    1
    40    26    27    1
    41    26    28   ar
    42    28    22   ar
    43    28    42    1
    44    29    14   ar
    45    29    43    1
@<TRIPOS>MOLECULE
*****
 43 45 0 0 0
SMALL
GASTEIGER

@<TRIPOS>ATOM
      1 O           1.9355    0.7409    1.0437 O.2     1  UNL11      -0.2687
      2 C           1.0039    0.3934    0.2653 C.2     1  UNL11       0.2602
      3 N           1.2538   -0.6138   -0.6977 N.am    1  UNL11      -0.2301
      4 N           0.2484   -1.0227   -1.5965 N.am    1  UNL11      -0.2300
      5 C           0.5829   -2.0331   -2.5007 C.2     1  UNL11       0.2629
      6 O           1.7652   -2.5490   -2.4898 O.2     1  UNL11      -0.2686
      7 C          -0.3479   -2.5520   -3.4826 C.ar    1  UNL11       0.0733
      8 C          -0.2300   -3.8919   -3.8870 C.ar    1  UNL11      -0.0468
      9 C          -1.0774   -4.4013   -4.8115 C.ar    1  UNL11      -0.0609
     10 C          -2.0899   -3.6747   -5.4109 C.ar    1  UNL11      -0.0590
     11 C          -2.2130   -2.3581   -5.0193 C.ar    1  UNL11      -0.0257
     12 C          -1.3425   -1.8184   -4.0636 C.ar    1  UNL11       0.1355
     13 F          -1.5608   -0.5262   -3.7462 F       1  UNL11      -0.2047
     14 C          -0.2833    1.0440    0.3959 C.ar    1  UNL11       0.0400
     15 C          -0.5061    2.0270    1.3469 C.ar    1  UNL11      -0.0495
     16 C          -1.7253    2.6497    1.4703 C.ar    1  UNL11      -0.0592
     17 C          -2.7358    2.2782    0.6248 C.ar    1  UNL11      -0.0364
     18 C          -2.5805    1.3085   -0.3412 C.ar    1  UNL11       0.0943
     19 S          -3.9094    0.9137   -1.3735 S.O2    1  UNL11       0.0252
     20 O          -4.8006    2.1200   -1.5686 O.2     1  UNL11      -0.1643
     21 O          -3.4352    0.5094   -2.7623 O.2     1  UNL11      -0.1643
     22 C          -4.9003   -0.3620   -0.7309 C.ar    1  UNL11       0.0963
     23 C          -4.9594   -0.4650    0.6584 C.ar    1  UNL11      -0.0363
     24 C          -5.7063   -1.4503    1.2687 C.ar    1  UNL11      -0.0572
     25 C          -6.4060   -2.3487    0.4891 C.ar    1  UNL11      -0.0263
     26 C          -6.3357   -2.2314   -0.8830 C.ar    1  UNL11       0.1252
     27 F          -7.0137   -3.1053   -1.6685 F       1  UNL11      -0.2054
     28 C          -5.5986   -1.2577   -1.5218 C.ar    1  UNL11      -0.0012
     29 C          -1.3493    0.7015   -0.4423 C.ar    1  UNL11      -0.0243
     30 H           2.1777   -1.0863   -0.7762 H       1  UNL11       0.1731
     31 H          -0.6537   -0.5724   -1.5539 H       1  UNL11       0.1731
     32 H           0.5673   -4.4726   -3.4185 H       1  UNL11       0.0626
     33 H          -0.9443   -5.4566   -5.0961 H       1  UNL11       0.0618
     34 H          -2.7240   -4.1551   -6.1417 H       1  UNL11       0.0618
     35 H          -2.9730   -1.7447   -5.4435 H       1  UNL11       0.0646
     36 H           0.2933    2.3285    2.0243 H       1  UNL11       0.0625
     37 H          -1.8601    3.4023    2.2154 H       1  UNL11       0.0618
     38 H          -3.7048    2.7855    0.7370 H       1  UNL11       0.0637
     39 H          -4.4261    0.2208    1.3033 H       1  UNL11       0.0637
     40 H          -5.7574   -1.5365    2.3631 H       1  UNL11       0.0619
     41 H          -7.0084   -3.1432    0.9368 H       1  UNL11       0.0646
     42 H          -5.5380   -1.1591   -2.6082 H       1  UNL11       0.0665
     43 H          -1.1629   -0.0719   -1.1864 H       1  UNL11       0.0644
@<TRIPOS>BOND
     1     1     2    2
     2     2     3   am
     3     2    14    1
     4     3     4    1
     5     3    30    1
     6     4     5   am
     7     4    31    1
     8     5     6    2
     9     5     7    1
    10     7     8   ar
    11     8     9   ar
    12     8    32    1
    13     9    10   ar
    14     9    33    1
    15    10    11   ar
    16    10    34    1
    17    11    12   ar
    18    11    35    1
    19    12    13    1
    20    12     7   ar
    21    14    15   ar
    22    15    16   ar
    23    15    36    1
    24    16    17   ar
    25    16    37    1
    26    17    18   ar
    27    17    38    1
    28    18    19    1
    29    18    29   ar
    30    19    20    2
    31    19    21    2
    32    19    22    1
    33    22    23   ar
    34    23    24   ar
    35    23    39    1
    36    24    25   ar
    37    24    40    1
    38    25    26   ar
    39    25    41    1
    40    26    27    1
    41    26    28   ar
    42    28    22   ar
    43    28    42    1
    44    29    14   ar
    45    29    43    1
@<TRIPOS>MOLECULE
*****
 43 45 0 0 0
SMALL
GASTEIGER

@<TRIPOS>ATOM
      1 O           2.0411    1.0439    0.5749 O.2     1  UNL11      -0.2687
      2 C           1.0039    0.3934    0.2653 C.2     1  UNL11       0.2602
      3 N           1.1407   -0.9390   -0.1934 N.am    1  UNL11      -0.2301
      4 N           0.0121   -1.6974   -0.5639 N.am    1  UNL11      -0.2300
      5 C          -1.1877   -1.4029    0.0874 C.2     1  UNL11       0.2629
      6 O          -1.2301   -0.4745    0.9821 O.2     1  UNL11      -0.2686
      7 C          -2.4269   -2.1012   -0.1895 C.ar    1  UNL11       0.0733
      8 C          -2.4292   -3.1213   -1.1550 C.ar    1  UNL11      -0.0468
      9 C          -3.5741   -3.7830   -1.4438 C.ar    1  UNL11      -0.0609
     10 C          -4.7887   -3.5211   -0.8365 C.ar    1  UNL11      -0.0590
     11 C          -4.7953   -2.5211    0.1132 C.ar    1  UNL11      -0.0257
     12 C          -3.6174   -1.8284    0.4214 C.ar    1  UNL11       0.1355
     13 F          -3.7357   -0.8802    1.3727 F       1  UNL11      -0.2047
     14 C          -0.2833    1.0440    0.3959 C.ar    1  UNL11       0.0400
     15 C          -0.5061    2.0270    1.3469 C.ar    1  UNL11      -0.0495
     16 C          -1.7253    2.6497    1.4703 C.ar    1  UNL11      -0.0592
     17 C          -2.7358    2.2782    0.6248 C.ar    1  UNL11      -0.0364
     18 C          -2.5805    1.3085   -0.3412 C.ar    1  UNL11       0.0943
     19 S          -3.9094    0.9137   -1.3735 S.O2    1  UNL11       0.0252
     20 O          -4.3361    2.1271   -2.1692 O.2     1  UNL11      -0.1643
     21 O          -3.5255   -0.1479   -2.3947 O.2     1  UNL11      -0.1643
     22 C          -5.3009    0.3592   -0.4911 C.ar    1  UNL11       0.0963
     23 C          -5.1766    0.3032    0.8966 C.ar    1  UNL11      -0.0363
     24 C          -6.2172   -0.1349    1.6880 C.ar    1  UNL11      -0.0572
     25 C          -7.4005   -0.5243    1.0942 C.ar    1  UNL11      -0.0263
     26 C          -7.5051   -0.4623   -0.2793 C.ar    1  UNL11       0.1252
     27 F          -8.6583   -0.8424   -0.8840 F       1  UNL11      -0.2054
     28 C          -6.4834   -0.0288   -1.0964 C.ar    1  UNL11      -0.0012
     29 C          -1.3493    0.7015   -0.4423 C.ar    1  UNL11      -0.0243
     30 H           2.0683   -1.4041   -0.2714 H       1  UNL11       0.1731
     31 H           0.1172   -2.4127   -1.2678 H       1  UNL11       0.1731
     32 H          -1.4740   -3.3341   -1.6395 H       1  UNL11       0.0626
     33 H          -3.5251   -4.5739   -2.2083 H       1  UNL11       0.0618
     34 H          -5.6580   -4.0942   -1.1243 H       1  UNL11       0.0618
     35 H          -5.6991   -2.2711    0.6175 H       1  UNL11       0.0646
     36 H           0.2933    2.3285    2.0243 H       1  UNL11       0.0625
     37 H          -1.8601    3.4023    2.2154 H       1  UNL11       0.0618
     38 H          -3.7048    2.7855    0.7370 H       1  UNL11       0.0637
     39 H          -4.2659    0.6010    1.3991 H       1  UNL11       0.0637
     40 H          -6.1259   -0.1808    2.7822 H       1  UNL11       0.0619
     41 H          -8.2470   -0.8774    1.6885 H       1  UNL11       0.0646
     42 H          -6.5590    0.0226   -2.1852 H       1  UNL11       0.0665
     43 H          -1.1629   -0.0719   -1.1864 H       1  UNL11       0.0644
@<TRIPOS>BOND
     1     1     2    2
     2     2     3   am
     3     2    14    1
     4     3     4    1
     5     3    30    1
     6     4     5   am
     7     4    31    1
     8     5     6    2
     9     5     7    1
    10     7     8   ar
    11     8     9   ar
    12     8    32    1
    13     9    10   ar
    14     9    33    1
    15    10    11   ar
    16    10    34    1
    17    11    12   ar
    18    11    35    1
    19    12    13    1
    20    12     7   ar
    21    14    15   ar
    22    15    16   ar
    23    15    36    1
    24    16    17   ar
    25    16    37    1
    26    17    18   ar
    27    17    38    1
    28    18    19    1
    29    18    29   ar
    30    19    20    2
    31    19    21    2
    32    19    22    1
    33    22    23   ar
    34    23    24   ar
    35    23    39    1
    36    24    25   ar
    37    24    40    1
    38    25    26   ar
    39    25    41    1
    40    26    27    1
    41    26    28   ar
    42    28    22   ar
    43    28    42    1
    44    29    14   ar
    45    29    43    1
@<TRIPOS>MOLECULE
*****
 43 45 0 0 0
SMALL
GASTEIGER

@<TRIPOS>ATOM
      1 O           1.3572   -0.0180   -0.8751 O.2     1  UNL11      -0.2687
      2 C           1.0039    0.3934    0.2653 C.2     1  UNL11       0.2602
      3 N           1.8764    0.2041    1.3641 N.am    1  UNL11      -0.2301
      4 N           1.5172    0.6338    2.6572 N.am    1  UNL11      -0.2300
      5 C           2.0294   -0.0984    3.7306 C.2     1  UNL11       0.2629
      6 O           2.7932   -1.1158    3.5171 O.2     1  UNL11      -0.2686
      7 C           1.7437    0.2260    5.1137 C.ar    1  UNL11       0.0733
      8 C           0.5187    0.8371    5.4278 C.ar    1  UNL11      -0.0468
      9 C           0.2290    1.1628    6.7092 C.ar    1  UNL11      -0.0609
     10 C           1.0803    0.9302    7.7739 C.ar    1  UNL11      -0.0590
     11 C           2.2854    0.3301    7.4744 C.ar    1  UNL11      -0.0257
     12 C           2.5977   -0.0120    6.1525 C.ar    1  UNL11       0.1355
     13 F           3.7960   -0.6044    5.9757 F       1  UNL11      -0.2047
     14 C          -0.2833    1.0440    0.3959 C.ar    1  UNL11       0.0400
     15 C          -0.5061    2.0270    1.3469 C.ar    1  UNL11      -0.0495
     16 C          -1.7253    2.6497    1.4703 C.ar    1  UNL11      -0.0592
     17 C          -2.7358    2.2782    0.6248 C.ar    1  UNL11      -0.0364
     18 C          -2.5805    1.3085   -0.3412 C.ar    1  UNL11       0.0943
     19 S          -3.9094    0.9137   -1.3735 S.O2    1  UNL11       0.0252
     20 O          -3.8849    1.7760   -2.6158 O.2     1  UNL11      -0.1643
     21 O          -3.8301   -0.5274   -1.8575 O.2     1  UNL11      -0.1643
     22 C          -5.4496    1.1584   -0.6053 C.ar    1  UNL11       0.0963
     23 C          -5.4232    1.6281    0.7073 C.ar    1  UNL11      -0.0363
     24 C          -6.5894    1.8430    1.4108 C.ar    1  UNL11      -0.0572
     25 C          -7.8020    1.5878    0.8033 C.ar    1  UNL11      -0.0263
     26 C          -7.8086    1.1238   -0.4951 C.ar    1  UNL11       0.1252
     27 F          -8.9892    0.8642   -1.1108 F       1  UNL11      -0.2054
     28 C          -6.6604    0.8998   -1.2237 C.ar    1  UNL11      -0.0012
     29 C          -1.3493    0.7015   -0.4423 C.ar    1  UNL11      -0.0243
     30 H           2.8058   -0.2521    1.2594 H       1  UNL11       0.1731
     31 H           0.9110    1.4349    2.7521 H       1  UNL11       0.1731
     32 H          -0.1593    1.0244    4.5925 H       1  UNL11       0.0626
     33 H          -0.7436    1.6406    6.9047 H       1  UNL11       0.0618
     34 H           0.7748    1.2213    8.7684 H       1  UNL11       0.0618
     35 H           2.9853    0.1239    8.2499 H       1  UNL11       0.0646
     36 H           0.2933    2.3285    2.0243 H       1  UNL11       0.0625
     37 H          -1.8601    3.4023    2.2154 H       1  UNL11       0.0618
     38 H          -3.7048    2.7855    0.7370 H       1  UNL11       0.0637
     39 H          -4.4929    1.8409    1.2172 H       1  UNL11       0.0637
     40 H          -6.5755    2.2136    2.4453 H       1  UNL11       0.0619
     41 H          -8.7471    1.7458    1.3290 H       1  UNL11       0.0646
     42 H          -6.6580    0.5319   -2.2525 H       1  UNL11       0.0665
     43 H          -1.1629   -0.0719   -1.1864 H       1  UNL11       0.0644
@<TRIPOS>BOND
     1     1     2    2
     2     2     3   am
     3     2    14    1
     4     3     4    1
     5     3    30    1
     6     4     5   am
     7     4    31    1
     8     5     6    2
     9     5     7    1
    10     7     8   ar
    11     8     9   ar
    12     8    32    1
    13     9    10   ar
    14     9    33    1
    15    10    11   ar
    16    10    34    1
    17    11    12   ar
    18    11    35    1
    19    12    13    1
    20    12     7   ar
    21    14    15   ar
    22    15    16   ar
    23    15    36    1
    24    16    17   ar
    25    16    37    1
    26    17    18   ar
    27    17    38    1
    28    18    19    1
    29    18    29   ar
    30    19    20    2
    31    19    21    2
    32    19    22    1
    33    22    23   ar
    34    23    24   ar
    35    23    39    1
    36    24    25   ar
    37    24    40    1
    38    25    26   ar
    39    25    41    1
    40    26    27    1
    41    26    28   ar
    42    28    22   ar
    43    28    42    1
    44    29    14   ar
    45    29    43    1
@<TRIPOS>MOLECULE
*****
 43 45 0 0 0
SMALL
GASTEIGER

@<TRIPOS>ATOM
      1 O           2.0411    1.0439    0.5749 O.2     1  UNL11      -0.2687
      2 C           1.0039    0.3934    0.2653 C.2     1  UNL11       0.2602
      3 N           1.1407   -0.9390   -0.1934 N.am    1  UNL11      -0.2301
      4 N           2.4104   -1.5399   -0.3064 N.am    1  UNL11      -0.2300
      5 C           3.4870   -0.6934   -0.5799 C.2     1  UNL11       0.2629
      6 O           3.2972    0.5751   -0.7173 O.2     1  UNL11      -0.2686
      7 C           4.8477   -1.1704   -0.7245 C.ar    1  UNL11       0.0733
      8 C           5.1030   -2.5445   -0.5848 C.ar    1  UNL11      -0.0468
      9 C           6.3655   -3.0180   -0.7026 C.ar    1  UNL11      -0.0609
     10 C           7.4657   -2.2207   -0.9605 C.ar    1  UNL11      -0.0590
     11 C           7.2239   -0.8701   -1.0994 C.ar    1  UNL11      -0.0257
     12 C           5.9221   -0.3670   -0.9798 C.ar    1  UNL11       0.1355
     13 F           5.7991    0.9654   -1.1460 F       1  UNL11      -0.2047
     14 C          -0.2833    1.0440    0.3959 C.ar    1  UNL11       0.0400
     15 C          -0.5061    2.0270    1.3469 C.ar    1  UNL11      -0.0495
     16 C          -1.7253    2.6497    1.4703 C.ar    1  UNL11      -0.0592
     17 C          -2.7358    2.2782    0.6248 C.ar    1  UNL11      -0.0364
     18 C          -2.5805    1.3085   -0.3412 C.ar    1  UNL11       0.0943
     19 S          -3.9094    0.9137   -1.3735 S.O2    1  UNL11       0.0252
     20 O          -3.8849    1.7760   -2.6158 O.2     1  UNL11      -0.1643
     21 O          -3.8301   -0.5274   -1.8575 O.2     1  UNL11      -0.1643
     22 C          -5.4496    1.1584   -0.6053 C.ar    1  UNL11       0.0963
     23 C          -5.5101    2.1591    0.3638 C.ar    1  UNL11      -0.0363
     24 C          -6.6811    2.4245    1.0417 C.ar    1  UNL11      -0.0572
     25 C          -7.8107    1.6857    0.7546 C.ar    1  UNL11      -0.0263
     26 C          -7.7320    0.7003   -0.2067 C.ar    1  UNL11       0.1252
     27 F          -8.8297   -0.0397   -0.5031 F       1  UNL11      -0.2054
     28 C          -6.5769    0.4120   -0.9010 C.ar    1  UNL11      -0.0012
     29 C          -1.3493    0.7015   -0.4423 C.ar    1  UNL11      -0.0243
     30 H           0.3189   -1.5176   -0.4632 H       1  UNL11       0.1731
     31 H           2.4867   -2.5396   -0.1927 H       1  UNL11       0.1731
     32 H           4.2395   -3.1810   -0.3809 H       1  UNL11       0.0626
     33 H           6.5147   -4.1025   -0.5843 H       1  UNL11       0.0618
     34 H           8.4420   -2.6765   -1.0390 H       1  UNL11       0.0618
     35 H           8.0290   -0.2024   -1.2990 H       1  UNL11       0.0646
     36 H           0.2933    2.3285    2.0243 H       1  UNL11       0.0625
     37 H          -1.8601    3.4023    2.2154 H       1  UNL11       0.0618
     38 H          -3.7048    2.7855    0.7370 H       1  UNL11       0.0637
     39 H          -4.6467    2.7603    0.6161 H       1  UNL11       0.0637
     40 H          -6.7356    3.2122    1.8062 H       1  UNL11       0.0619
     41 H          -8.7567    1.8669    1.2712 H       1  UNL11       0.0646
     42 H          -6.5071   -0.3675   -1.6634 H       1  UNL11       0.0665
     43 H          -1.1629   -0.0719   -1.1864 H       1  UNL11       0.0644
@<TRIPOS>BOND
     1     1     2    2
     2     2     3   am
     3     2    14    1
     4     3     4    1
     5     3    30    1
     6     4     5   am
     7     4    31    1
     8     5     6    2
     9     5     7    1
    10     7     8   ar
    11     8     9   ar
    12     8    32    1
    13     9    10   ar
    14     9    33    1
    15    10    11   ar
    16    10    34    1
    17    11    12   ar
    18    11    35    1
    19    12    13    1
    20    12     7   ar
    21    14    15   ar
    22    15    16   ar
    23    15    36    1
    24    16    17   ar
    25    16    37    1
    26    17    18   ar
    27    17    38    1
    28    18    19    1
    29    18    29   ar
    30    19    20    2
    31    19    21    2
    32    19    22    1
    33    22    23   ar
    34    23    24   ar
    35    23    39    1
    36    24    25   ar
    37    24    40    1
    38    25    26   ar
    39    25    41    1
    40    26    27    1
    41    26    28   ar
    42    28    22   ar
    43    28    42    1
    44    29    14   ar
    45    29    43    1
@<TRIPOS>MOLECULE
*****
 43 45 0 0 0
SMALL
GASTEIGER

@<TRIPOS>ATOM
      1 O           1.9355    0.7409    1.0437 O.2     1  UNL11      -0.2687
      2 C           1.0039    0.3934    0.2653 C.2     1  UNL11       0.2602
      3 N           1.2538   -0.6138   -0.6977 N.am    1  UNL11      -0.2301
      4 N           2.5196   -1.2258   -0.7946 N.am    1  UNL11      -0.2300
      5 C           2.6763   -2.1981   -1.7848 C.2     1  UNL11       0.2629
      6 O           1.6904   -2.5008   -2.5596 O.2     1  UNL11      -0.2686
      7 C           3.9195   -2.9111   -1.9995 C.ar    1  UNL11       0.0733
      8 C           4.2350   -3.3487   -3.2964 C.ar    1  UNL11      -0.0468
      9 C           5.3832   -4.0277   -3.5255 C.ar    1  UNL11      -0.0609
     10 C           6.3053   -4.3348   -2.5417 C.ar    1  UNL11      -0.0590
     11 C           6.0036   -3.9085   -1.2652 C.ar    1  UNL11      -0.0257
     12 C           4.8186   -3.2049   -1.0144 C.ar    1  UNL11       0.1355
     13 F           4.6305   -2.8259    0.2658 F       1  UNL11      -0.2047
     14 C          -0.2833    1.0440    0.3959 C.ar    1  UNL11       0.0400
     15 C          -0.5061    2.0270    1.3469 C.ar    1  UNL11      -0.0495
     16 C          -1.7253    2.6497    1.4703 C.ar    1  UNL11      -0.0592
     17 C          -2.7358    2.2782    0.6248 C.ar    1  UNL11      -0.0364
     18 C          -2.5805    1.3085   -0.3412 C.ar    1  UNL11       0.0943
     19 S          -3.9094    0.9137   -1.3735 S.O2    1  UNL11       0.0252
     20 O          -3.4081    0.4613   -2.7269 O.2     1  UNL11      -0.1643
     21 O          -4.7235   -0.2451   -0.8153 O.2     1  UNL11      -0.1643
     22 C          -4.9730    2.2626   -1.6411 C.ar    1  UNL11       0.0963
     23 C          -4.3941    3.5303   -1.5973 C.ar    1  UNL11      -0.0363
     24 C          -5.1524    4.6667   -1.7837 C.ar    1  UNL11      -0.0572
     25 C          -6.5071    4.5445   -2.0170 C.ar    1  UNL11      -0.0263
     26 C          -7.0620    3.2829   -2.0569 C.ar    1  UNL11       0.1252
     27 F          -8.3920    3.1398   -2.2825 F       1  UNL11      -0.2054
     28 C          -6.3305    2.1291   -1.8748 C.ar    1  UNL11      -0.0012
     29 C          -1.3493    0.7015   -0.4423 C.ar    1  UNL11      -0.0243
     30 H           0.5219   -0.9352   -1.3640 H       1  UNL11       0.1731
     31 H           3.2455   -0.9449   -0.1524 H       1  UNL11       0.1731
     32 H           3.5118   -3.1103   -4.0791 H       1  UNL11       0.0626
     33 H           5.5856   -4.3501   -4.5587 H       1  UNL11       0.0618
     34 H           7.1984   -4.8818   -2.8064 H       1  UNL11       0.0618
     35 H           6.6729   -4.1133   -0.4628 H       1  UNL11       0.0646
     36 H           0.2933    2.3285    2.0243 H       1  UNL11       0.0625
     37 H          -1.8601    3.4023    2.2154 H       1  UNL11       0.0618
     38 H          -3.7048    2.7855    0.7370 H       1  UNL11       0.0637
     39 H          -3.3359    3.6671   -1.4182 H       1  UNL11       0.0637
     40 H          -4.7022    5.6687   -1.7509 H       1  UNL11       0.0619
     41 H          -7.1405    5.4222   -2.1690 H       1  UNL11       0.0646
     42 H          -6.7635    1.1265   -1.9046 H       1  UNL11       0.0665
     43 H          -1.1629   -0.0719   -1.1864 H       1  UNL11       0.0644
@<TRIPOS>BOND
     1     1     2    2
     2     2     3   am
     3     2    14    1
     4     3     4    1
     5     3    30    1
     6     4     5   am
     7     4    31    1
     8     5     6    2
     9     5     7    1
    10     7     8   ar
    11     8     9   ar
    12     8    32    1
    13     9    10   ar
    14     9    33    1
    15    10    11   ar
    16    10    34    1
    17    11    12   ar
    18    11    35    1
    19    12    13    1
    20    12     7   ar
    21    14    15   ar
    22    15    16   ar
    23    15    36    1
    24    16    17   ar
    25    16    37    1
    26    17    18   ar
    27    17    38    1
    28    18    19    1
    29    18    29   ar
    30    19    20    2
    31    19    21    2
    32    19    22    1
    33    22    23   ar
    34    23    24   ar
    35    23    39    1
    36    24    25   ar
    37    24    40    1
    38    25    26   ar
    39    25    41    1
    40    26    27    1
    41    26    28   ar
    42    28    22   ar
    43    28    42    1
    44    29    14   ar
    45    29    43    1
@<TRIPOS>MOLECULE
*****
 43 45 0 0 0
SMALL
GASTEIGER

@<TRIPOS>ATOM
      1 O           1.3572   -0.0180   -0.8751 O.2     1  UNL11      -0.2687
      2 C           1.0039    0.3934    0.2653 C.2     1  UNL11       0.2602
      3 N           1.8764    0.2041    1.3641 N.am    1  UNL11      -0.2301
      4 N           1.5172    0.6338    2.6572 N.am    1  UNL11      -0.2300
      5 C           0.1545    0.6445    2.9628 C.2     1  UNL11       0.2629
      6 O          -0.2477    1.0390    4.1233 O.2     1  UNL11      -0.2686
      7 C          -0.8670    0.2240    2.0249 C.ar    1  UNL11       0.0733
      8 C          -0.5479   -0.7533    1.0679 C.ar    1  UNL11      -0.0468
      9 C          -1.4777   -1.1573    0.1710 C.ar    1  UNL11      -0.0609
     10 C          -2.7679   -0.6620    0.1238 C.ar    1  UNL11      -0.0590
     11 C          -3.0899    0.2980    1.0602 C.ar    1  UNL11      -0.0257
     12 C          -2.1370    0.7250    1.9940 C.ar    1  UNL11       0.1355
     13 F          -2.5627    1.6574    2.8701 F       1  UNL11      -0.2047
     14 C          -0.2833    1.0440    0.3959 C.ar    1  UNL11       0.0400
     15 C          -0.5061    2.0270    1.3469 C.ar    1  UNL11      -0.0495
     16 C          -1.7253    2.6497    1.4703 C.ar    1  UNL11      -0.0592
     17 C          -2.7358    2.2782    0.6248 C.ar    1  UNL11      -0.0364
     18 C          -2.5805    1.3085   -0.3412 C.ar    1  UNL11       0.0943
     19 S          -3.9094    0.9137   -1.3735 S.O2    1  UNL11       0.0252
     20 O          -5.1153    1.7573   -1.0247 O.2     1  UNL11      -0.1643
     21 O          -3.5908    1.2140   -2.8314 O.2     1  UNL11      -0.1643
     22 C          -4.3885   -0.7522   -1.2406 C.ar    1  UNL11       0.0963
     23 C          -4.3176   -1.5154   -2.4054 C.ar    1  UNL11      -0.0363
     24 C          -4.6872   -2.8437   -2.4104 C.ar    1  UNL11      -0.0572
     25 C          -5.1348   -3.4252   -1.2416 C.ar    1  UNL11      -0.0263
     26 C          -5.1982   -2.6550   -0.0997 C.ar    1  UNL11       0.1252
     27 F          -5.6374   -3.2057    1.0597 F       1  UNL11      -0.2054
     28 C          -4.8356   -1.3259   -0.0632 C.ar    1  UNL11      -0.0012
     29 C          -1.3493    0.7015   -0.4423 C.ar    1  UNL11      -0.0243
     30 H           2.8058   -0.2521    1.2594 H       1  UNL11       0.1731
     31 H           2.2461    0.9161    3.2954 H       1  UNL11       0.1731
     32 H           0.4692   -1.1495    1.0983 H       1  UNL11       0.0626
     33 H          -1.1792   -1.9253   -0.5595 H       1  UNL11       0.0618
     34 H          -3.4508   -1.0364   -0.6248 H       1  UNL11       0.0618
     35 H          -4.0675    0.7195    1.0769 H       1  UNL11       0.0646
     36 H           0.2933    2.3285    2.0243 H       1  UNL11       0.0625
     37 H          -1.8601    3.4023    2.2154 H       1  UNL11       0.0618
     38 H          -3.7048    2.7855    0.7370 H       1  UNL11       0.0637
     39 H          -3.9709   -1.0960   -3.3406 H       1  UNL11       0.0637
     40 H          -4.6332   -3.4508   -3.3248 H       1  UNL11       0.0619
     41 H          -5.4368   -4.4751   -1.2068 H       1  UNL11       0.0646
     42 H          -4.8837   -0.7095    0.8377 H       1  UNL11       0.0665
     43 H          -1.1629   -0.0719   -1.1864 H       1  UNL11       0.0644
@<TRIPOS>BOND
     1     1     2    2
     2     2     3   am
     3     2    14    1
     4     3     4    1
     5     3    30    1
     6     4     5   am
     7     4    31    1
     8     5     6    2
     9     5     7    1
    10     7     8   ar
    11     8     9   ar
    12     8    32    1
    13     9    10   ar
    14     9    33    1
    15    10    11   ar
    16    10    34    1
    17    11    12   ar
    18    11    35    1
    19    12    13    1
    20    12     7   ar
    21    14    15   ar
    22    15    16   ar
    23    15    36    1
    24    16    17   ar
    25    16    37    1
    26    17    18   ar
    27    17    38    1
    28    18    19    1
    29    18    29   ar
    30    19    20    2
    31    19    21    2
    32    19    22    1
    33    22    23   ar
    34    23    24   ar
    35    23    39    1
    36    24    25   ar
    37    24    40    1
    38    25    26   ar
    39    25    41    1
    40    26    27    1
    41    26    28   ar
    42    28    22   ar
    43    28    42    1
    44    29    14   ar
    45    29    43    1
@<TRIPOS>MOLECULE
*****
 43 45 0 0 0
SMALL
GASTEIGER

@<TRIPOS>ATOM
      1 O           1.9355    0.7409    1.0437 O.2     1  UNL11      -0.2687
      2 C           1.0039    0.3934    0.2653 C.2     1  UNL11       0.2602
      3 N           1.2538   -0.6138   -0.6977 N.am    1  UNL11      -0.2301
      4 N           0.2484   -1.0227   -1.5965 N.am    1  UNL11      -0.2300
      5 C          -0.7038   -0.0663   -1.9559 C.2     1  UNL11       0.2629
      6 O          -1.6609   -0.3745   -2.7640 O.2     1  UNL11      -0.2686
      7 C          -0.6791    1.2954   -1.4607 C.ar    1  UNL11       0.0733
      8 C           0.3454    1.6779   -0.5793 C.ar    1  UNL11      -0.0468
      9 C           0.3876    2.9394   -0.0907 C.ar    1  UNL11      -0.0609
     10 C          -0.5369    3.9183   -0.4059 C.ar    1  UNL11      -0.0590
     11 C          -1.5463    3.5513   -1.2711 C.ar    1  UNL11      -0.0257
     12 C          -1.6017    2.2490   -1.7840 C.ar    1  UNL11       0.1355
     13 F          -2.6226    2.0030   -2.6297 F       1  UNL11      -0.2047
     14 C          -0.2833    1.0440    0.3959 C.ar    1  UNL11       0.0400
     15 C          -0.5061    2.0270    1.3469 C.ar    1  UNL11      -0.0495
     16 C          -1.7253    2.6497    1.4703 C.ar    1  UNL11      -0.0592
     17 C          -2.7358    2.2782    0.6248 C.ar    1  UNL11      -0.0364
     18 C          -2.5805    1.3085   -0.3412 C.ar    1  UNL11       0.0943
     19 S          -3.9094    0.9137   -1.3735 S.O2    1  UNL11       0.0252
     20 O          -3.5459    1.1676   -2.8195 O.2     1  UNL11      -0.1643
     21 O          -4.2676   -0.5629   -1.2806 O.2     1  UNL11      -0.1643
     22 C          -5.3299    1.8536   -1.0253 C.ar    1  UNL11       0.0963
     23 C          -5.2115    3.2359   -1.1645 C.ar    1  UNL11      -0.0363
     24 C          -6.2754    4.0723   -0.9000 C.ar    1  UNL11      -0.0572
     25 C          -7.4762    3.5296   -0.4904 C.ar    1  UNL11      -0.0263
     26 C          -7.5746    2.1606   -0.3582 C.ar    1  UNL11       0.1252
     27 F          -8.7450    1.6061    0.0453 F       1  UNL11      -0.2054
     28 C          -6.5299    1.2993   -0.6154 C.ar    1  UNL11      -0.0012
     29 C          -1.3493    0.7015   -0.4423 C.ar    1  UNL11      -0.0243
     30 H           2.1777   -1.0863   -0.7762 H       1  UNL11       0.1731
     31 H           0.2548   -1.9741   -1.9328 H       1  UNL11       0.1731
     32 H           1.0796    0.9105   -0.3251 H       1  UNL11       0.0626
     33 H           1.2098    3.1908    0.5973 H       1  UNL11       0.0618
     34 H          -0.4335    4.9024    0.0277 H       1  UNL11       0.0618
     35 H          -2.2898    4.2593   -1.5535 H       1  UNL11       0.0646
     36 H           0.2933    2.3285    2.0243 H       1  UNL11       0.0625
     37 H          -1.8601    3.4023    2.2154 H       1  UNL11       0.0618
     38 H          -3.7048    2.7855    0.7370 H       1  UNL11       0.0637
     39 H          -4.2874    3.6988   -1.4844 H       1  UNL11       0.0637
     40 H          -6.1888    5.1625   -1.0084 H       1  UNL11       0.0619
     41 H          -8.3414    4.1605   -0.2713 H       1  UNL11       0.0646
     42 H          -6.6005    0.2138   -0.5125 H       1  UNL11       0.0665
     43 H          -1.1629   -0.0719   -1.1864 H       1  UNL11       0.0644
@<TRIPOS>BOND
     1     1     2    2
     2     2     3   am
     3     2    14    1
     4     3     4    1
     5     3    30    1
     6     4     5   am
     7     4    31    1
     8     5     6    2
     9     5     7    1
    10     7     8   ar
    11     8     9   ar
    12     8    32    1
    13     9    10   ar
    14     9    33    1
    15    10    11   ar
    16    10    34    1
    17    11    12   ar
    18    11    35    1
    19    12    13    1
    20    12     7   ar
    21    14    15   ar
    22    15    16   ar
    23    15    36    1
    24    16    17   ar
    25    16    37    1
    26    17    18   ar
    27    17    38    1
    28    18    19    1
    29    18    29   ar
    30    19    20    2
    31    19    21    2
    32    19    22    1
    33    22    23   ar
    34    23    24   ar
    35    23    39    1
    36    24    25   ar
    37    24    40    1
    38    25    26   ar
    39    25    41    1
    40    26    27    1
    41    26    28   ar
    42    28    22   ar
    43    28    42    1
    44    29    14   ar
    45    29    43    1
@<TRIPOS>MOLECULE
*****
 43 45 0 0 0
SMALL
GASTEIGER

@<TRIPOS>ATOM
      1 O           2.0411    1.0439    0.5749 O.2     1  UNL11      -0.2687
      2 C           1.0039    0.3934    0.2653 C.2     1  UNL11       0.2602
      3 N           1.1407   -0.9390   -0.1934 N.am    1  UNL11      -0.2301
      4 N           0.0121   -1.6974   -0.5639 N.am    1  UNL11      -0.2300
      5 C           0.2439   -3.0071   -0.9896 C.2     1  UNL11       0.2629
      6 O          -0.7412   -3.7546   -1.3568 O.2     1  UNL11      -0.2686
      7 C           1.5670   -3.5959   -1.0435 C.ar    1  UNL11       0.0733
      8 C           1.7020   -4.9796   -0.8444 C.ar    1  UNL11      -0.0468
      9 C           2.9263   -5.5560   -0.8771 C.ar    1  UNL11      -0.0609
     10 C           4.0996   -4.8590   -1.1006 C.ar    1  UNL11      -0.0590
     11 C           3.9760   -3.4996   -1.2975 C.ar    1  UNL11      -0.0257
     12 C           2.7150   -2.8905   -1.2662 C.ar    1  UNL11       0.1355
     13 F           2.7095   -1.5597   -1.4831 F       1  UNL11      -0.2047
     14 C          -0.2833    1.0440    0.3959 C.ar    1  UNL11       0.0400
     15 C          -0.5061    2.0270    1.3469 C.ar    1  UNL11      -0.0495
     16 C          -1.7253    2.6497    1.4703 C.ar    1  UNL11      -0.0592
     17 C          -2.7358    2.2782    0.6248 C.ar    1  UNL11      -0.0364
     18 C          -2.5805    1.3085   -0.3412 C.ar    1  UNL11       0.0943
     19 S          -3.9094    0.9137   -1.3735 S.O2    1  UNL11       0.0252
     20 O          -4.7331   -0.2008   -0.7678 O.2     1  UNL11      -0.1643
     21 O          -4.8548    2.0950   -1.5413 O.2     1  UNL11      -0.1643
     22 C          -3.3991    0.3818   -2.9480 C.ar    1  UNL11       0.0963
     23 C          -3.8406    1.1369   -4.0338 C.ar    1  UNL11      -0.0363
     24 C          -3.5030    0.7925   -5.3255 C.ar    1  UNL11      -0.0572
     25 C          -2.7150   -0.3190   -5.5447 C.ar    1  UNL11      -0.0263
     26 C          -2.2878   -1.0536   -4.4588 C.ar    1  UNL11       0.1252
     27 F          -1.5143   -2.1513   -4.6515 F       1  UNL11      -0.2054
     28 C          -2.6081   -0.7344   -3.1569 C.ar    1  UNL11      -0.0012
     29 C          -1.3493    0.7015   -0.4423 C.ar    1  UNL11      -0.0243
     30 H           2.0683   -1.4041   -0.2714 H       1  UNL11       0.1731
     31 H          -0.8998   -1.2683   -0.5124 H       1  UNL11       0.1731
     32 H           0.7802   -5.5374   -0.6670 H       1  UNL11       0.0626
     33 H           2.9804   -6.6438   -0.7147 H       1  UNL11       0.0618
     34 H           5.0383   -5.3934   -1.1103 H       1  UNL11       0.0618
     35 H           4.8420   -2.9059   -1.4748 H       1  UNL11       0.0646
     36 H           0.2933    2.3285    2.0243 H       1  UNL11       0.0625
     37 H          -1.8601    3.4023    2.2154 H       1  UNL11       0.0618
     38 H          -3.7048    2.7855    0.7370 H       1  UNL11       0.0637
     39 H          -4.4586    2.0153   -3.9027 H       1  UNL11       0.0637
     40 H          -3.8472    1.3837   -6.1856 H       1  UNL11       0.0619
     41 H          -2.4272   -0.6233   -6.5542 H       1  UNL11       0.0646
     42 H          -2.2736   -1.3120   -2.2919 H       1  UNL11       0.0665
     43 H          -1.1629   -0.0719   -1.1864 H       1  UNL11       0.0644
@<TRIPOS>BOND
     1     1     2    2
     2     2     3   am
     3     2    14    1
     4     3     4    1
     5     3    30    1
     6     4     5   am
     7     4    31    1
     8     5     6    2
     9     5     7    1
    10     7     8   ar
    11     8     9   ar
    12     8    32    1
    13     9    10   ar
    14     9    33    1
    15    10    11   ar
    16    10    34    1
    17    11    12   ar
    18    11    35    1
    19    12    13    1
    20    12     7   ar
    21    14    15   ar
    22    15    16   ar
    23    15    36    1
    24    16    17   ar
    25    16    37    1
    26    17    18   ar
    27    17    38    1
    28    18    19    1
    29    18    29   ar
    30    19    20    2
    31    19    21    2
    32    19    22    1
    33    22    23   ar
    34    23    24   ar
    35    23    39    1
    36    24    25   ar
    37    24    40    1
    38    25    26   ar
    39    25    41    1
    40    26    27    1
    41    26    28   ar
    42    28    22   ar
    43    28    42    1
    44    29    14   ar
    45    29    43    1
@<TRIPOS>MOLECULE
*****
 43 45 0 0 0
SMALL
GASTEIGER

@<TRIPOS>ATOM
      1 O           2.0411    1.0439    0.5749 O.2     1  UNL11      -0.2687
      2 C           1.0039    0.3934    0.2653 C.2     1  UNL11       0.2602
      3 N           1.1407   -0.9390   -0.1934 N.am    1  UNL11      -0.2301
      4 N           0.0121   -1.6974   -0.5639 N.am    1  UNL11      -0.2300
      5 C          -1.1877   -1.4029    0.0874 C.2     1  UNL11       0.2629
      6 O          -2.2581   -2.0665   -0.1918 O.2     1  UNL11      -0.2686
      7 C          -1.3061   -0.3621    1.0888 C.ar    1  UNL11       0.0733
      8 C          -0.1674    0.3883    1.4248 C.ar    1  UNL11      -0.0468
      9 C          -0.2444    1.3588    2.3652 C.ar    1  UNL11      -0.0609
     10 C          -1.4042    1.6802    3.0463 C.ar    1  UNL11      -0.0590
     11 C          -2.5274    0.9484    2.7223 C.ar    1  UNL11      -0.0257
     12 C          -2.4613   -0.0588    1.7510 C.ar    1  UNL11       0.1355
     13 F          -3.6204   -0.7021    1.5046 F       1  UNL11      -0.2047
     14 C          -0.2833    1.0440    0.3959 C.ar    1  UNL11       0.0400
     15 C          -0.5061    2.0270    1.3469 C.ar    1  UNL11      -0.0495
     16 C          -1.7253    2.6497    1.4703 C.ar    1  UNL11      -0.0592
     17 C          -2.7358    2.2782    0.6248 C.ar    1  UNL11      -0.0364
     18 C          -2.5805    1.3085   -0.3412 C.ar    1  UNL11       0.0943
     19 S          -3.9094    0.9137   -1.3735 S.O2    1  UNL11       0.0252
     20 O          -5.0878    0.4358   -0.5547 O.2     1  UNL11      -0.1643
     21 O          -4.3969    2.1321   -2.1449 O.2     1  UNL11      -0.1643
     22 C          -3.5244   -0.3457   -2.5084 C.ar    1  UNL11       0.0963
     23 C          -4.2957   -1.5051   -2.4375 C.ar    1  UNL11      -0.0363
     24 C          -4.0632   -2.5684   -3.2840 C.ar    1  UNL11      -0.0572
     25 C          -3.0492   -2.4812   -4.2160 C.ar    1  UNL11      -0.0263
     26 C          -2.2969   -1.3270   -4.2715 C.ar    1  UNL11       0.1252
     27 F          -1.2936   -1.2208   -5.1784 F       1  UNL11      -0.2054
     28 C          -2.5053   -0.2480   -3.4398 C.ar    1  UNL11      -0.0012
     29 C          -1.3493    0.7015   -0.4423 C.ar    1  UNL11      -0.0243
     30 H           2.0683   -1.4041   -0.2714 H       1  UNL11       0.1731
     31 H           0.1172   -2.4127   -1.2678 H       1  UNL11       0.1731
     32 H           0.7528    0.1405    0.8915 H       1  UNL11       0.0626
     33 H           0.6755    1.9190    2.5940 H       1  UNL11       0.0618
     34 H          -1.3825    2.4688    3.7844 H       1  UNL11       0.0618
     35 H          -3.4522    1.1471    3.2111 H       1  UNL11       0.0646
     36 H           0.2933    2.3285    2.0243 H       1  UNL11       0.0625
     37 H          -1.8601    3.4023    2.2154 H       1  UNL11       0.0618
     38 H          -3.7048    2.7855    0.7370 H       1  UNL11       0.0637
     39 H          -5.0999   -1.6109   -1.7216 H       1  UNL11       0.0637
     40 H          -4.6678   -3.4847   -3.2335 H       1  UNL11       0.0619
     41 H          -2.8349   -3.3035   -4.9034 H       1  UNL11       0.0646
     42 H          -1.9130    0.6693   -3.4778 H       1  UNL11       0.0665
     43 H          -1.1629   -0.0719   -1.1864 H       1  UNL11       0.0644
@<TRIPOS>BOND
     1     1     2    2
     2     2     3   am
     3     2    14    1
     4     3     4    1
     5     3    30    1
     6     4     5   am
     7     4    31    1
     8     5     6    2
     9     5     7    1
    10     7     8   ar
    11     8     9   ar
    12     8    32    1
    13     9    10   ar
    14     9    33    1
    15    10    11   ar
    16    10    34    1
    17    11    12   ar
    18    11    35    1
    19    12    13    1
    20    12     7   ar
    21    14    15   ar
    22    15    16   ar
    23    15    36    1
    24    16    17   ar
    25    16    37    1
    26    17    18   ar
    27    17    38    1
    28    18    19    1
    29    18    29   ar
    30    19    20    2
    31    19    21    2
    32    19    22    1
    33    22    23   ar
    34    23    24   ar
    35    23    39    1
    36    24    25   ar
    37    24    40    1
    38    25    26   ar
    39    25    41    1
    40    26    27    1
    41    26    28   ar
    42    28    22   ar
    43    28    42    1
    44    29    14   ar
    45    29    43    1
@<TRIPOS>MOLECULE
*****
 43 45 0 0 0
SMALL
GASTEIGER

@<TRIPOS>ATOM
      1 O           2.0411    1.0439    0.5749 O.2     1  UNL11      -0.2687
      2 C           1.0039    0.3934    0.2653 C.2     1  UNL11       0.2602
      3 N           1.1407   -0.9390   -0.1934 N.am    1  UNL11      -0.2301
      4 N           0.0121   -1.6974   -0.5639 N.am    1  UNL11      -0.2300
      5 C          -1.1877   -1.4029    0.0874 C.2     1  UNL11       0.2629
      6 O          -2.2581   -2.0665   -0.1918 O.2     1  UNL11      -0.2686
      7 C          -1.3061   -0.3621    1.0888 C.ar    1  UNL11       0.0733
      8 C          -0.1674    0.3883    1.4248 C.ar    1  UNL11      -0.0468
      9 C          -0.2444    1.3588    2.3652 C.ar    1  UNL11      -0.0609
     10 C          -1.4042    1.6802    3.0463 C.ar    1  UNL11      -0.0590
     11 C          -2.5274    0.9484    2.7223 C.ar    1  UNL11      -0.0257
     12 C          -2.4613   -0.0588    1.7510 C.ar    1  UNL11       0.1355
     13 F          -3.6204   -0.7021    1.5046 F       1  UNL11      -0.2047
     14 C          -0.2833    1.0440    0.3959 C.ar    1  UNL11       0.0400
     15 C          -0.5061    2.0270    1.3469 C.ar    1  UNL11      -0.0495
     16 C          -1.7253    2.6497    1.4703 C.ar    1  UNL11      -0.0592
     17 C          -2.7358    2.2782    0.6248 C.ar    1  UNL11      -0.0364
     18 C          -2.5805    1.3085   -0.3412 C.ar    1  UNL11       0.0943
     19 S          -3.9094    0.9137   -1.3735 S.O2    1  UNL11       0.0252
     20 O          -3.8367   -0.5376   -1.7930 O.2     1  UNL11      -0.1643
     21 O          -5.2413    1.0801   -0.6555 O.2     1  UNL11      -0.1643
     22 C          -3.9368    1.8701   -2.8250 C.ar    1  UNL11       0.0963
     23 C          -3.8542    1.1747   -4.0307 C.ar    1  UNL11      -0.0363
     24 C          -3.8546    1.8399   -5.2384 C.ar    1  UNL11      -0.0572
     25 C          -3.9379    3.2174   -5.2513 C.ar    1  UNL11      -0.0263
     26 C          -4.0188    3.8881   -4.0493 C.ar    1  UNL11       0.1252
     27 F          -4.0991    5.2423   -4.0387 F       1  UNL11      -0.2054
     28 C          -4.0210    3.2515   -2.8270 C.ar    1  UNL11      -0.0012
     29 C          -1.3493    0.7015   -0.4423 C.ar    1  UNL11      -0.0243
     30 H           2.0683   -1.4041   -0.2714 H       1  UNL11       0.1731
     31 H           0.1172   -2.4127   -1.2678 H       1  UNL11       0.1731
     32 H           0.7528    0.1405    0.8915 H       1  UNL11       0.0626
     33 H           0.6755    1.9190    2.5940 H       1  UNL11       0.0618
     34 H          -1.3825    2.4688    3.7844 H       1  UNL11       0.0618
     35 H          -3.4522    1.1471    3.2111 H       1  UNL11       0.0646
     36 H           0.2933    2.3285    2.0243 H       1  UNL11       0.0625
     37 H          -1.8601    3.4023    2.2154 H       1  UNL11       0.0618
     38 H          -3.7048    2.7855    0.7370 H       1  UNL11       0.0637
     39 H          -3.7888    0.0952   -4.0619 H       1  UNL11       0.0637
     40 H          -3.7903    1.2977   -6.1921 H       1  UNL11       0.0619
     41 H          -3.9406    3.7793   -6.1888 H       1  UNL11       0.0646
     42 H          -4.0844    3.7764   -1.8708 H       1  UNL11       0.0665
     43 H          -1.1629   -0.0719   -1.1864 H       1  UNL11       0.0644
@<TRIPOS>BOND
     1     1     2    2
     2     2     3   am
     3     2    14    1
     4     3     4    1
     5     3    30    1
     6     4     5   am
     7     4    31    1
     8     5     6    2
     9     5     7    1
    10     7     8   ar
    11     8     9   ar
    12     8    32    1
    13     9    10   ar
    14     9    33    1
    15    10    11   ar
    16    10    34    1
    17    11    12   ar
    18    11    35    1
    19    12    13    1
    20    12     7   ar
    21    14    15   ar
    22    15    16   ar
    23    15    36    1
    24    16    17   ar
    25    16    37    1
    26    17    18   ar
    27    17    38    1
    28    18    19    1
    29    18    29   ar
    30    19    20    2
    31    19    21    2
    32    19    22    1
    33    22    23   ar
    34    23    24   ar
    35    23    39    1
    36    24    25   ar
    37    24    40    1
    38    25    26   ar
    39    25    41    1
    40    26    27    1
    41    26    28   ar
    42    28    22   ar
    43    28    42    1
    44    29    14   ar
    45    29    43    1
@<TRIPOS>MOLECULE
*****
 43 45 0 0 0
SMALL
GASTEIGER

@<TRIPOS>ATOM
      1 O           1.0355   -0.8022   -0.1399 O.2     1  UNL11      -0.2687
      2 C           1.0039    0.3934    0.2653 C.2     1  UNL11       0.2602
      3 N           2.2219    1.0464    0.5727 N.am    1  UNL11      -0.2301
      4 N           3.4563    0.3813    0.4322 N.am    1  UNL11      -0.2300
      5 C           4.5644    1.1685    0.1111 C.2     1  UNL11       0.2629
      6 O           4.4331    2.4425   -0.0433 O.2     1  UNL11      -0.2686
      7 C           5.8947    0.6220   -0.0660 C.ar    1  UNL11       0.0733
      8 C           6.7739    1.2543   -0.9605 C.ar    1  UNL11      -0.0468
      9 C           8.0187    0.7597   -1.1558 C.ar    1  UNL11      -0.0609
     10 C           8.5096   -0.3640   -0.5165 C.ar    1  UNL11      -0.0590
     11 C           7.6529   -0.9908    0.3639 C.ar    1  UNL11      -0.0257
     12 C           6.3621   -0.4895    0.5752 C.ar    1  UNL11       0.1355
     13 F           5.6144   -1.1726    1.4654 F       1  UNL11      -0.2047
     14 C          -0.2833    1.0440    0.3959 C.ar    1  UNL11       0.0400
     15 C          -0.5061    2.0270    1.3469 C.ar    1  UNL11      -0.0495
     16 C          -1.7253    2.6497    1.4703 C.ar    1  UNL11      -0.0592
     17 C          -2.7358    2.2782    0.6248 C.ar    1  UNL11      -0.0364
     18 C          -2.5805    1.3085   -0.3412 C.ar    1  UNL11       0.0943
     19 S          -3.9094    0.9137   -1.3735 S.O2    1  UNL11       0.0252
     20 O          -3.5178   -0.1823   -2.3394 O.2     1  UNL11      -0.1643
     21 O          -5.0911    0.3751   -0.5793 O.2     1  UNL11      -0.1643
     22 C          -4.4471    2.2689   -2.3205 C.ar    1  UNL11       0.0963
     23 C          -3.8476    2.4335   -3.5686 C.ar    1  UNL11      -0.0363
     24 C          -4.1934    3.4839   -4.3921 C.ar    1  UNL11      -0.0572
     25 C          -5.1490    4.3863   -3.9715 C.ar    1  UNL11      -0.0263
     26 C          -5.7309    4.2076   -2.7343 C.ar    1  UNL11       0.1252
     27 F          -6.6709    5.0840   -2.3000 F       1  UNL11      -0.2054
     28 C          -5.4068    3.1680   -1.8894 C.ar    1  UNL11      -0.0012
     29 C          -1.3493    0.7015   -0.4423 C.ar    1  UNL11      -0.0243
     30 H           2.2514    2.0297    0.9121 H       1  UNL11       0.1731
     31 H           3.4868   -0.6190    0.5615 H       1  UNL11       0.1731
     32 H           6.3938    2.1423   -1.4696 H       1  UNL11       0.0626
     33 H           8.6704    1.2901   -1.8674 H       1  UNL11       0.0618
     34 H           9.5157   -0.6955   -0.7284 H       1  UNL11       0.0618
     35 H           7.9708   -1.8613    0.8882 H       1  UNL11       0.0646
     36 H           0.2933    2.3285    2.0243 H       1  UNL11       0.0625
     37 H          -1.8601    3.4023    2.2154 H       1  UNL11       0.0618
     38 H          -3.7048    2.7855    0.7370 H       1  UNL11       0.0637
     39 H          -3.0957    1.7467   -3.9340 H       1  UNL11       0.0637
     40 H          -3.7251    3.6189   -5.3771 H       1  UNL11       0.0619
     41 H          -5.4488    5.2314   -4.5963 H       1  UNL11       0.0646
     42 H          -5.8634    3.0205   -0.9079 H       1  UNL11       0.0665
     43 H          -1.1629   -0.0719   -1.1864 H       1  UNL11       0.0644
@<TRIPOS>BOND
     1     1     2    2
     2     2     3   am
     3     2    14    1
     4     3     4    1
     5     3    30    1
     6     4     5   am
     7     4    31    1
     8     5     6    2
     9     5     7    1
    10     7     8   ar
    11     8     9   ar
    12     8    32    1
    13     9    10   ar
    14     9    33    1
    15    10    11   ar
    16    10    34    1
    17    11    12   ar
    18    11    35    1
    19    12    13    1
    20    12     7   ar
    21    14    15   ar
    22    15    16   ar
    23    15    36    1
    24    16    17   ar
    25    16    37    1
    26    17    18   ar
    27    17    38    1
    28    18    19    1
    29    18    29   ar
    30    19    20    2
    31    19    21    2
    32    19    22    1
    33    22    23   ar
    34    23    24   ar
    35    23    39    1
    36    24    25   ar
    37    24    40    1
    38    25    26   ar
    39    25    41    1
    40    26    27    1
    41    26    28   ar
    42    28    22   ar
    43    28    42    1
    44    29    14   ar
    45    29    43    1
@<TRIPOS>MOLECULE
*****
 43 45 0 0 0
SMALL
GASTEIGER

@<TRIPOS>ATOM
      1 O           1.7261    0.2762    1.2946 O.2     1  UNL11      -0.2687
      2 C           1.0039    0.3934    0.2653 C.2     1  UNL11       0.2602
      3 N           1.4788   -0.1145   -0.9680 N.am    1  UNL11      -0.2301
      4 N           0.7133    0.0072   -2.1449 N.am    1  UNL11      -0.2300
      5 C          -0.1364    1.1120   -2.2336 C.2     1  UNL11       0.2629
      6 O          -0.8768    1.2797   -3.2766 O.2     1  UNL11      -0.2686
      7 C          -0.2381    2.1139   -1.1915 C.ar    1  UNL11       0.0733
      8 C           0.8851    2.3744   -0.3895 C.ar    1  UNL11      -0.0468
      9 C           0.8167    3.2960    0.5995 C.ar    1  UNL11      -0.0609
     10 C          -0.3190    4.0292    0.8912 C.ar    1  UNL11      -0.0590
     11 C          -1.4266    3.7798    0.1082 C.ar    1  UNL11      -0.0257
     12 C          -1.3693    2.8287   -0.9185 C.ar    1  UNL11       0.1355
     13 F          -2.5050    2.6745   -1.6287 F       1  UNL11      -0.2047
     14 C          -0.2833    1.0440    0.3959 C.ar    1  UNL11       0.0400
     15 C          -0.5061    2.0270    1.3469 C.ar    1  UNL11      -0.0495
     16 C          -1.7253    2.6497    1.4703 C.ar    1  UNL11      -0.0592
     17 C          -2.7358    2.2782    0.6248 C.ar    1  UNL11      -0.0364
     18 C          -2.5805    1.3085   -0.3412 C.ar    1  UNL11       0.0943
     19 S          -3.9094    0.9137   -1.3735 S.O2    1  UNL11       0.0252
     20 O          -3.8849    1.7760   -2.6158 O.2     1  UNL11      -0.1643
     21 O          -3.8301   -0.5274   -1.8575 O.2     1  UNL11      -0.1643
     22 C          -5.4496    1.1584   -0.6053 C.ar    1  UNL11       0.0963
     23 C          -6.2706    0.0378   -0.4852 C.ar    1  UNL11      -0.0363
     24 C          -7.5174    0.1272    0.0968 C.ar    1  UNL11      -0.0572
     25 C          -7.9579    1.3475    0.5673 C.ar    1  UNL11      -0.0263
     26 C          -7.1324    2.4445    0.4399 C.ar    1  UNL11       0.1252
     27 F          -7.5463    3.6542    0.8934 F       1  UNL11      -0.2054
     28 C          -5.8817    2.3867   -0.1363 C.ar    1  UNL11      -0.0012
     29 C          -1.3493    0.7015   -0.4423 C.ar    1  UNL11      -0.0243
     30 H           2.3991   -0.5930   -1.0509 H       1  UNL11       0.1731
     31 H           0.8051   -0.6994   -2.8594 H       1  UNL11       0.1731
     32 H           1.7861    1.7994   -0.6133 H       1  UNL11       0.0626
     33 H           1.7234    3.4641    1.2012 H       1  UNL11       0.0618
     34 H          -0.2924    4.7461    1.6988 H       1  UNL11       0.0618
     35 H          -2.3326    4.3115    0.2819 H       1  UNL11       0.0646
     36 H           0.2933    2.3285    2.0243 H       1  UNL11       0.0625
     37 H          -1.8601    3.4023    2.2154 H       1  UNL11       0.0618
     38 H          -3.7048    2.7855    0.7370 H       1  UNL11       0.0637
     39 H          -5.9605   -0.9359   -0.8406 H       1  UNL11       0.0637
     40 H          -8.1691   -0.7523    0.1950 H       1  UNL11       0.0619
     41 H          -8.9400    1.4573    1.0341 H       1  UNL11       0.0646
     42 H          -5.2226    3.2517   -0.2410 H       1  UNL11       0.0665
     43 H          -1.1629   -0.0719   -1.1864 H       1  UNL11       0.0644
@<TRIPOS>BOND
     1     1     2    2
     2     2     3   am
     3     2    14    1
     4     3     4    1
     5     3    30    1
     6     4     5   am
     7     4    31    1
     8     5     6    2
     9     5     7    1
    10     7     8   ar
    11     8     9   ar
    12     8    32    1
    13     9    10   ar
    14     9    33    1
    15    10    11   ar
    16    10    34    1
    17    11    12   ar
    18    11    35    1
    19    12    13    1
    20    12     7   ar
    21    14    15   ar
    22    15    16   ar
    23    15    36    1
    24    16    17   ar
    25    16    37    1
    26    17    18   ar
    27    17    38    1
    28    18    19    1
    29    18    29   ar
    30    19    20    2
    31    19    21    2
    32    19    22    1
    33    22    23   ar
    34    23    24   ar
    35    23    39    1
    36    24    25   ar
    37    24    40    1
    38    25    26   ar
    39    25    41    1
    40    26    27    1
    41    26    28   ar
    42    28    22   ar
    43    28    42    1
    44    29    14   ar
    45    29    43    1
@<TRIPOS>MOLECULE
*****
 43 45 0 0 0
SMALL
GASTEIGER

@<TRIPOS>ATOM
      1 O           1.3572   -0.0180   -0.8751 O.2     1  UNL11      -0.2687
      2 C           1.0039    0.3934    0.2653 C.2     1  UNL11       0.2602
      3 N           1.8764    0.2041    1.3641 N.am    1  UNL11      -0.2301
      4 N           1.5172    0.6338    2.6572 N.am    1  UNL11      -0.2300
      5 C           2.5570    1.0224    3.5047 C.2     1  UNL11       0.2629
      6 O           3.7794    0.9792    3.0949 O.2     1  UNL11      -0.2686
      7 C           2.3378    1.4844    4.8606 C.ar    1  UNL11       0.0733
      8 C           1.2304    0.9953    5.5729 C.ar    1  UNL11      -0.0468
      9 C           0.9931    1.4178    6.8368 C.ar    1  UNL11      -0.0609
     10 C           1.7892    2.3293    7.5060 C.ar    1  UNL11      -0.0590
     11 C           2.8791    2.8144    6.8139 C.ar    1  UNL11      -0.0257
     12 C           3.1360    2.3856    5.5054 C.ar    1  UNL11       0.1355
     13 F           4.2339    2.9143    4.9281 F       1  UNL11      -0.2047
     14 C          -0.2833    1.0440    0.3959 C.ar    1  UNL11       0.0400
     15 C          -0.5061    2.0270    1.3469 C.ar    1  UNL11      -0.0495
     16 C          -1.7253    2.6497    1.4703 C.ar    1  UNL11      -0.0592
     17 C          -2.7358    2.2782    0.6248 C.ar    1  UNL11      -0.0364
     18 C          -2.5805    1.3085   -0.3412 C.ar    1  UNL11       0.0943
     19 S          -3.9094    0.9137   -1.3735 S.O2    1  UNL11       0.0252
     20 O          -3.8367   -0.5376   -1.7930 O.2     1  UNL11      -0.1643
     21 O          -5.2413    1.0801   -0.6555 O.2     1  UNL11      -0.1643
     22 C          -3.9368    1.8701   -2.8250 C.ar    1  UNL11       0.0963
     23 C          -5.1911    2.1312   -3.3752 C.ar    1  UNL11      -0.0363
     24 C          -5.3218    2.8692   -4.5325 C.ar    1  UNL11      -0.0572
     25 C          -4.1906    3.3563   -5.1550 C.ar    1  UNL11      -0.0263
     26 C          -2.9588    3.0880   -4.5965 C.ar    1  UNL11       0.1252
     27 F          -1.8335    3.5551   -5.1931 F       1  UNL11      -0.2054
     28 C          -2.7961    2.3543   -3.4413 C.ar    1  UNL11      -0.0012
     29 C          -1.3493    0.7015   -0.4423 C.ar    1  UNL11      -0.0243
     30 H           2.8058   -0.2521    1.2594 H       1  UNL11       0.1731
     31 H           0.5414    0.6374    2.9144 H       1  UNL11       0.1731
     32 H           0.5965    0.2752    5.0514 H       1  UNL11       0.0626
     33 H           0.1123    1.0060    7.3534 H       1  UNL11       0.0618
     34 H           1.5307    2.6165    8.5148 H       1  UNL11       0.0618
     35 H           3.5316    3.5193    7.2735 H       1  UNL11       0.0646
     36 H           0.2933    2.3285    2.0243 H       1  UNL11       0.0625
     37 H          -1.8601    3.4023    2.2154 H       1  UNL11       0.0618
     38 H          -3.7048    2.7855    0.7370 H       1  UNL11       0.0637
     39 H          -6.1009    1.7679   -2.9161 H       1  UNL11       0.0637
     40 H          -6.3075    3.0790   -4.9709 H       1  UNL11       0.0619
     41 H          -4.2545    3.9447   -6.0738 H       1  UNL11       0.0646
     42 H          -1.8234    2.1375   -2.9934 H       1  UNL11       0.0665
     43 H          -1.1629   -0.0719   -1.1864 H       1  UNL11       0.0644
@<TRIPOS>BOND
     1     1     2    2
     2     2     3   am
     3     2    14    1
     4     3     4    1
     5     3    30    1
     6     4     5   am
     7     4    31    1
     8     5     6    2
     9     5     7    1
    10     7     8   ar
    11     8     9   ar
    12     8    32    1
    13     9    10   ar
    14     9    33    1
    15    10    11   ar
    16    10    34    1
    17    11    12   ar
    18    11    35    1
    19    12    13    1
    20    12     7   ar
    21    14    15   ar
    22    15    16   ar
    23    15    36    1
    24    16    17   ar
    25    16    37    1
    26    17    18   ar
    27    17    38    1
    28    18    19    1
    29    18    29   ar
    30    19    20    2
    31    19    21    2
    32    19    22    1
    33    22    23   ar
    34    23    24   ar
    35    23    39    1
    36    24    25   ar
    37    24    40    1
    38    25    26   ar
    39    25    41    1
    40    26    27    1
    41    26    28   ar
    42    28    22   ar
    43    28    42    1
    44    29    14   ar
    45    29    43    1
@<TRIPOS>MOLECULE
*****
 43 45 0 0 0
SMALL
GASTEIGER

@<TRIPOS>ATOM
      1 O           1.7261    0.2762    1.2946 O.2     1  UNL11      -0.2687
      2 C           1.0039    0.3934    0.2653 C.2     1  UNL11       0.2602
      3 N           1.4788   -0.1145   -0.9680 N.am    1  UNL11      -0.2301
      4 N           2.7370   -0.7430   -1.0566 N.am    1  UNL11      -0.2300
      5 C           3.1273   -1.1989   -2.3176 C.2     1  UNL11       0.2629
      6 O           4.2606   -1.7959   -2.4703 O.2     1  UNL11      -0.2686
      7 C           2.3100   -1.0345   -3.5029 C.ar    1  UNL11       0.0733
      8 C           1.0682   -0.3888   -3.3860 C.ar    1  UNL11      -0.0468
      9 C           0.2774   -0.2315   -4.4733 C.ar    1  UNL11      -0.0609
     10 C           0.6126   -0.6750   -5.7395 C.ar    1  UNL11      -0.0590
     11 C           1.8306   -1.3100   -5.8634 C.ar    1  UNL11      -0.0257
     12 C           2.6585   -1.4794   -4.7462 C.ar    1  UNL11       0.1355
     13 F           3.8307   -2.1020   -4.9836 F       1  UNL11      -0.2047
     14 C          -0.2833    1.0440    0.3959 C.ar    1  UNL11       0.0400
     15 C          -0.5061    2.0270    1.3469 C.ar    1  UNL11      -0.0495
     16 C          -1.7253    2.6497    1.4703 C.ar    1  UNL11      -0.0592
     17 C          -2.7358    2.2782    0.6248 C.ar    1  UNL11      -0.0364
     18 C          -2.5805    1.3085   -0.3412 C.ar    1  UNL11       0.0943
     19 S          -3.9094    0.9137   -1.3735 S.O2    1  UNL11       0.0252
     20 O          -3.8849    1.7760   -2.6158 O.2     1  UNL11      -0.1643
     21 O          -3.8301   -0.5274   -1.8575 O.2     1  UNL11      -0.1643
     22 C          -5.4496    1.1584   -0.6053 C.ar    1  UNL11       0.0963
     23 C          -5.4876    0.9971    0.7792 C.ar    1  UNL11      -0.0363
     24 C          -6.6626    1.1558    1.4830 C.ar    1  UNL11      -0.0572
     25 C          -7.8192    1.4795    0.8034 C.ar    1  UNL11      -0.0263
     26 C          -7.7625    1.6350   -0.5655 C.ar    1  UNL11       0.1252
     27 F          -8.8879    1.9509   -1.2539 F       1  UNL11      -0.2054
     28 C          -6.6038    1.4834   -1.2963 C.ar    1  UNL11      -0.0012
     29 C          -1.3493    0.7015   -0.4423 C.ar    1  UNL11      -0.0243
     30 H           0.9245   -0.0419   -1.8457 H       1  UNL11       0.1731
     31 H           3.2913   -0.8409   -0.2190 H       1  UNL11       0.1731
     32 H           0.7959   -0.0357   -2.3893 H       1  UNL11       0.0626
     33 H          -0.6869    0.2805   -4.3307 H       1  UNL11       0.0618
     34 H          -0.0752   -0.5112   -6.5563 H       1  UNL11       0.0618
     35 H           2.1473   -1.6750   -6.8122 H       1  UNL11       0.0646
     36 H           0.2933    2.3285    2.0243 H       1  UNL11       0.0625
     37 H          -1.8601    3.4023    2.2154 H       1  UNL11       0.0618
     38 H          -3.7048    2.7855    0.7370 H       1  UNL11       0.0637
     39 H          -4.6022    0.7447    1.3475 H       1  UNL11       0.0637
     40 H          -6.6991    1.0306    2.5742 H       1  UNL11       0.0619
     41 H          -8.7693    1.6131    1.3269 H       1  UNL11       0.0646
     42 H          -6.5516    1.6046   -2.3809 H       1  UNL11       0.0665
     43 H          -1.1629   -0.0719   -1.1864 H       1  UNL11       0.0644
@<TRIPOS>BOND
     1     1     2    2
     2     2     3   am
     3     2    14    1
     4     3     4    1
     5     3    30    1
     6     4     5   am
     7     4    31    1
     8     5     6    2
     9     5     7    1
    10     7     8   ar
    11     8     9   ar
    12     8    32    1
    13     9    10   ar
    14     9    33    1
    15    10    11   ar
    16    10    34    1
    17    11    12   ar
    18    11    35    1
    19    12    13    1
    20    12     7   ar
    21    14    15   ar
    22    15    16   ar
    23    15    36    1
    24    16    17   ar
    25    16    37    1
    26    17    18   ar
    27    17    38    1
    28    18    19    1
    29    18    29   ar
    30    19    20    2
    31    19    21    2
    32    19    22    1
    33    22    23   ar
    34    23    24   ar
    35    23    39    1
    36    24    25   ar
    37    24    40    1
    38    25    26   ar
    39    25    41    1
    40    26    27    1
    41    26    28   ar
    42    28    22   ar
    43    28    42    1
    44    29    14   ar
    45    29    43    1
@<TRIPOS>MOLECULE
*****
 43 45 0 0 0
SMALL
GASTEIGER

@<TRIPOS>ATOM
      1 O           1.1459   -0.4852   -0.6306 O.2     1  UNL11      -0.2687
      2 C           1.0039    0.3934    0.2653 C.2     1  UNL11       0.2602
      3 N           2.1034    0.7061    1.1006 N.am    1  UNL11      -0.2301
      4 N           1.9862    1.6691    2.1228 N.am    1  UNL11      -0.2300
      5 C           1.0738    2.7052    1.9121 C.2     1  UNL11       0.2629
      6 O           0.9244    3.6293    2.7996 O.2     1  UNL11      -0.2686
      7 C           0.2579    2.8065    0.7188 C.ar    1  UNL11       0.0733
      8 C           0.3849    1.8221   -0.2750 C.ar    1  UNL11      -0.0468
      9 C          -0.3552    1.8967   -1.4058 C.ar    1  UNL11      -0.0609
     10 C          -1.2622    2.9075   -1.6669 C.ar    1  UNL11      -0.0590
     11 C          -1.3934    3.8782   -0.6961 C.ar    1  UNL11      -0.0257
     12 C          -0.6335    3.8129    0.4788 C.ar    1  UNL11       0.1355
     13 F          -0.8505    4.8063    1.3644 F       1  UNL11      -0.2047
     14 C          -0.2833    1.0440    0.3959 C.ar    1  UNL11       0.0400
     15 C          -0.5061    2.0270    1.3469 C.ar    1  UNL11      -0.0495
     16 C          -1.7253    2.6497    1.4703 C.ar    1  UNL11      -0.0592
     17 C          -2.7358    2.2782    0.6248 C.ar    1  UNL11      -0.0364
     18 C          -2.5805    1.3085   -0.3412 C.ar    1  UNL11       0.0943
     19 S          -3.9094    0.9137   -1.3735 S.O2    1  UNL11       0.0252
     20 O          -3.5178   -0.1823   -2.3394 O.2     1  UNL11      -0.1643
     21 O          -5.0911    0.3751   -0.5793 O.2     1  UNL11      -0.1643
     22 C          -4.4471    2.2689   -2.3205 C.ar    1  UNL11       0.0963
     23 C          -5.7696    2.6710   -2.1372 C.ar    1  UNL11      -0.0363
     24 C          -6.2983    3.7268   -2.8492 C.ar    1  UNL11      -0.0572
     25 C          -5.5033    4.3949   -3.7581 C.ar    1  UNL11      -0.0263
     26 C          -4.1981    3.9831   -3.9259 C.ar    1  UNL11       0.1252
     27 F          -3.3996    4.6241   -4.8157 F       1  UNL11      -0.2054
     28 C          -3.6413    2.9324   -3.2292 C.ar    1  UNL11      -0.0012
     29 C          -1.3493    0.7015   -0.4423 C.ar    1  UNL11      -0.0243
     30 H           3.0293    0.2439    0.9914 H       1  UNL11       0.1731
     31 H           2.5602    1.5747    2.9473 H       1  UNL11       0.1731
     32 H           1.0993    1.0204   -0.0765 H       1  UNL11       0.0626
     33 H          -0.2195    1.1016   -2.1554 H       1  UNL11       0.0618
     34 H          -1.8141    2.8955   -2.5955 H       1  UNL11       0.0618
     35 H          -2.0754    4.6837   -0.8366 H       1  UNL11       0.0646
     36 H           0.2933    2.3285    2.0243 H       1  UNL11       0.0625
     37 H          -1.8601    3.4023    2.2154 H       1  UNL11       0.0618
     38 H          -3.7048    2.7855    0.7370 H       1  UNL11       0.0637
     39 H          -6.4237    2.1735   -1.4335 H       1  UNL11       0.0637
     40 H          -7.3396    4.0491   -2.7091 H       1  UNL11       0.0619
     41 H          -5.8873    5.2360   -4.3408 H       1  UNL11       0.0646
     42 H          -2.6083    2.6004   -3.3573 H       1  UNL11       0.0665
     43 H          -1.1629   -0.0719   -1.1864 H       1  UNL11       0.0644
@<TRIPOS>BOND
     1     1     2    2
     2     2     3   am
     3     2    14    1
     4     3     4    1
     5     3    30    1
     6     4     5   am
     7     4    31    1
     8     5     6    2
     9     5     7    1
    10     7     8   ar
    11     8     9   ar
    12     8    32    1
    13     9    10   ar
    14     9    33    1
    15    10    11   ar
    16    10    34    1
    17    11    12   ar
    18    11    35    1
    19    12    13    1
    20    12     7   ar
    21    14    15   ar
    22    15    16   ar
    23    15    36    1
    24    16    17   ar
    25    16    37    1
    26    17    18   ar
    27    17    38    1
    28    18    19    1
    29    18    29   ar
    30    19    20    2
    31    19    21    2
    32    19    22    1
    33    22    23   ar
    34    23    24   ar
    35    23    39    1
    36    24    25   ar
    37    24    40    1
    38    25    26   ar
    39    25    41    1
    40    26    27    1
    41    26    28   ar
    42    28    22   ar
    43    28    42    1
    44    29    14   ar
    45    29    43    1
@<TRIPOS>MOLECULE
*****
 43 45 0 0 0
SMALL
GASTEIGER

@<TRIPOS>ATOM
      1 O           1.0355   -0.8022   -0.1399 O.2     1  UNL11      -0.2687
      2 C           1.0039    0.3934    0.2653 C.2     1  UNL11       0.2602
      3 N           2.2219    1.0464    0.5727 N.am    1  UNL11      -0.2301
      4 N           2.2335    2.3751    1.0421 N.am    1  UNL11      -0.2300
      5 C           3.3493    3.1495    0.7172 C.2     1  UNL11       0.2629
      6 O           3.4336    4.3704    1.1251 O.2     1  UNL11      -0.2686
      7 C           4.4525    2.6480   -0.0775 C.ar    1  UNL11       0.0733
      8 C           4.4044    1.3246   -0.5454 C.ar    1  UNL11      -0.0468
      9 C           5.4256    0.8244   -1.2797 C.ar    1  UNL11      -0.0609
     10 C           6.5561    1.5456   -1.6176 C.ar    1  UNL11      -0.0590
     11 C           6.6114    2.8463   -1.1624 C.ar    1  UNL11      -0.0257
     12 C           5.5614    3.3762   -0.4015 C.ar    1  UNL11       0.1355
     13 F           5.7141    4.6603   -0.0197 F       1  UNL11      -0.2047
     14 C          -0.2833    1.0440    0.3959 C.ar    1  UNL11       0.0400
     15 C          -0.5061    2.0270    1.3469 C.ar    1  UNL11      -0.0495
     16 C          -1.7253    2.6497    1.4703 C.ar    1  UNL11      -0.0592
     17 C          -2.7358    2.2782    0.6248 C.ar    1  UNL11      -0.0364
     18 C          -2.5805    1.3085   -0.3412 C.ar    1  UNL11       0.0943
     19 S          -3.9094    0.9137   -1.3735 S.O2    1  UNL11       0.0252
     20 O          -5.0878    0.4358   -0.5547 O.2     1  UNL11      -0.1643
     21 O          -4.3969    2.1321   -2.1449 O.2     1  UNL11      -0.1643
     22 C          -3.5244   -0.3457   -2.5084 C.ar    1  UNL11       0.0963
     23 C          -4.2957   -1.5051   -2.4375 C.ar    1  UNL11      -0.0363
     24 C          -4.0632   -2.5684   -3.2840 C.ar    1  UNL11      -0.0572
     25 C          -3.0492   -2.4812   -4.2160 C.ar    1  UNL11      -0.0263
     26 C          -2.2969   -1.3270   -4.2715 C.ar    1  UNL11       0.1252
     27 F          -1.2936   -1.2208   -5.1784 F       1  UNL11      -0.2054
     28 C          -2.5053   -0.2480   -3.4398 C.ar    1  UNL11      -0.0012
     29 C          -1.3493    0.7015   -0.4423 C.ar    1  UNL11      -0.0243
     30 H           3.1438    0.5764    0.4631 H       1  UNL11       0.1731
     31 H           1.4515    2.7042    1.5885 H       1  UNL11       0.1731
     32 H           3.5150    0.7481   -0.2827 H       1  UNL11       0.0626
     33 H           5.3417   -0.2185   -1.6230 H       1  UNL11       0.0618
     34 H           7.3283    1.0727   -2.2068 H       1  UNL11       0.0618
     35 H           7.4554    3.4547   -1.3887 H       1  UNL11       0.0646
     36 H           0.2933    2.3285    2.0243 H       1  UNL11       0.0625
     37 H          -1.8601    3.4023    2.2154 H       1  UNL11       0.0618
     38 H          -3.7048    2.7855    0.7370 H       1  UNL11       0.0637
     39 H          -5.0999   -1.6109   -1.7216 H       1  UNL11       0.0637
     40 H          -4.6678   -3.4847   -3.2335 H       1  UNL11       0.0619
     41 H          -2.8349   -3.3035   -4.9034 H       1  UNL11       0.0646
     42 H          -1.9130    0.6693   -3.4778 H       1  UNL11       0.0665
     43 H          -1.1629   -0.0719   -1.1864 H       1  UNL11       0.0644
@<TRIPOS>BOND
     1     1     2    2
     2     2     3   am
     3     2    14    1
     4     3     4    1
     5     3    30    1
     6     4     5   am
     7     4    31    1
     8     5     6    2
     9     5     7    1
    10     7     8   ar
    11     8     9   ar
    12     8    32    1
    13     9    10   ar
    14     9    33    1
    15    10    11   ar
    16    10    34    1
    17    11    12   ar
    18    11    35    1
    19    12    13    1
    20    12     7   ar
    21    14    15   ar
    22    15    16   ar
    23    15    36    1
    24    16    17   ar
    25    16    37    1
    26    17    18   ar
    27    17    38    1
    28    18    19    1
    29    18    29   ar
    30    19    20    2
    31    19    21    2
    32    19    22    1
    33    22    23   ar
    34    23    24   ar
    35    23    39    1
    36    24    25   ar
    37    24    40    1
    38    25    26   ar
    39    25    41    1
    40    26    27    1
    41    26    28   ar
    42    28    22   ar
    43    28    42    1
    44    29    14   ar
    45    29    43    1
@<TRIPOS>MOLECULE
*****
 43 45 0 0 0
SMALL
GASTEIGER

@<TRIPOS>ATOM
      1 O           1.1459   -0.4852   -0.6306 O.2     1  UNL11      -0.2687
      2 C           1.0039    0.3934    0.2653 C.2     1  UNL11       0.2602
      3 N           2.1034    0.7061    1.1006 N.am    1  UNL11      -0.2301
      4 N           1.9862    1.6691    2.1228 N.am    1  UNL11      -0.2300
      5 C           3.1283    1.9216    2.8859 C.2     1  UNL11       0.2629
      6 O           3.0901    2.7808    3.8473 O.2     1  UNL11      -0.2686
      7 C           4.3944    1.2561    2.6537 C.ar    1  UNL11       0.0733
      8 C           5.2557    1.0387    3.7416 C.ar    1  UNL11      -0.0468
      9 C           6.4502    0.4305    3.5536 C.ar    1  UNL11      -0.0609
     10 C           6.9043   -0.0107    2.3241 C.ar    1  UNL11      -0.0590
     11 C           6.0646    0.1985    1.2503 C.ar    1  UNL11      -0.0257
     12 C           4.8257    0.8268    1.4311 C.ar    1  UNL11       0.1355
     13 F           4.0807    0.9689    0.3162 F       1  UNL11      -0.2047
     14 C          -0.2833    1.0440    0.3959 C.ar    1  UNL11       0.0400
     15 C          -0.5061    2.0270    1.3469 C.ar    1  UNL11      -0.0495
     16 C          -1.7253    2.6497    1.4703 C.ar    1  UNL11      -0.0592
     17 C          -2.7358    2.2782    0.6248 C.ar    1  UNL11      -0.0364
     18 C          -2.5805    1.3085   -0.3412 C.ar    1  UNL11       0.0943
     19 S          -3.9094    0.9137   -1.3735 S.O2    1  UNL11       0.0252
     20 O          -3.5459    1.1676   -2.8195 O.2     1  UNL11      -0.1643
     21 O          -4.2676   -0.5629   -1.2806 O.2     1  UNL11      -0.1643
     22 C          -5.3299    1.8536   -1.0253 C.ar    1  UNL11       0.0963
     23 C          -6.1792    2.1195   -2.0986 C.ar    1  UNL11      -0.0363
     24 C          -7.3256    2.8672   -1.9318 C.ar    1  UNL11      -0.0572
     25 C          -7.6351    3.3598   -0.6804 C.ar    1  UNL11      -0.0263
     26 C          -6.7835    3.0868    0.3691 C.ar    1  UNL11       0.1252
     27 F          -7.0673    3.5631    1.6072 F       1  UNL11      -0.2054
     28 C          -5.6314    2.3426    0.2338 C.ar    1  UNL11      -0.0012
     29 C          -1.3493    0.7015   -0.4423 C.ar    1  UNL11      -0.0243
     30 H           3.0293    0.2439    0.9914 H       1  UNL11       0.1731
     31 H           1.0963    2.1239    2.2620 H       1  UNL11       0.1731
     32 H           4.9046    1.3843    4.7161 H       1  UNL11       0.0626
     33 H           7.0903    0.2833    4.4374 H       1  UNL11       0.0618
     34 H           7.8718   -0.4866    2.2576 H       1  UNL11       0.0618
     35 H           6.3559   -0.1182    0.2763 H       1  UNL11       0.0646
     36 H           0.2933    2.3285    2.0243 H       1  UNL11       0.0625
     37 H          -1.8601    3.4023    2.2154 H       1  UNL11       0.0618
     38 H          -3.7048    2.7855    0.7370 H       1  UNL11       0.0637
     39 H          -5.9715    1.7500   -3.0941 H       1  UNL11       0.0637
     40 H          -7.9994    3.0799   -2.7735 H       1  UNL11       0.0619
     41 H          -8.5347    3.9566   -0.5095 H       1  UNL11       0.0646
     42 H          -4.9518    2.1227    1.0606 H       1  UNL11       0.0665
     43 H          -1.1629   -0.0719   -1.1864 H       1  UNL11       0.0644
@<TRIPOS>BOND
     1     1     2    2
     2     2     3   am
     3     2    14    1
     4     3     4    1
     5     3    30    1
     6     4     5   am
     7     4    31    1
     8     5     6    2
     9     5     7    1
    10     7     8   ar
    11     8     9   ar
    12     8    32    1
    13     9    10   ar
    14     9    33    1
    15    10    11   ar
    16    10    34    1
    17    11    12   ar
    18    11    35    1
    19    12    13    1
    20    12     7   ar
    21    14    15   ar
    22    15    16   ar
    23    15    36    1
    24    16    17   ar
    25    16    37    1
    26    17    18   ar
    27    17    38    1
    28    18    19    1
    29    18    29   ar
    30    19    20    2
    31    19    21    2
    32    19    22    1
    33    22    23   ar
    34    23    24   ar
    35    23    39    1
    36    24    25   ar
    37    24    40    1
    38    25    26   ar
    39    25    41    1
    40    26    27    1
    41    26    28   ar
    42    28    22   ar
    43    28    42    1
    44    29    14   ar
    45    29    43    1
@<TRIPOS>MOLECULE
*****
 43 45 0 0 0
SMALL
GASTEIGER

@<TRIPOS>ATOM
      1 O           1.0355   -0.8022   -0.1399 O.2     1  UNL11      -0.2687
      2 C           1.0039    0.3934    0.2653 C.2     1  UNL11       0.2602
      3 N           2.2219    1.0464    0.5727 N.am    1  UNL11      -0.2301
      4 N           3.4563    0.3813    0.4322 N.am    1  UNL11      -0.2300
      5 C           3.5324   -0.6069   -0.5518 C.2     1  UNL11       0.2629
      6 O           4.6274   -1.2659   -0.7270 O.2     1  UNL11      -0.2686
      7 C           2.4197   -0.9457   -1.4161 C.ar    1  UNL11       0.0733
      8 C           1.4843    0.0508   -1.7395 C.ar    1  UNL11      -0.0468
      9 C           0.4280   -0.2390   -2.5347 C.ar    1  UNL11      -0.0609
     10 C           0.1910   -1.4901   -3.0742 C.ar    1  UNL11      -0.0590
     11 C           1.1050   -2.4745   -2.7620 C.ar    1  UNL11      -0.0257
     12 C           2.2025   -2.1881   -1.9400 C.ar    1  UNL11       0.1355
     13 F           3.0385   -3.2206   -1.7102 F       1  UNL11      -0.2047
     14 C          -0.2833    1.0440    0.3959 C.ar    1  UNL11       0.0400
     15 C          -0.5061    2.0270    1.3469 C.ar    1  UNL11      -0.0495
     16 C          -1.7253    2.6497    1.4703 C.ar    1  UNL11      -0.0592
     17 C          -2.7358    2.2782    0.6248 C.ar    1  UNL11      -0.0364
     18 C          -2.5805    1.3085   -0.3412 C.ar    1  UNL11       0.0943
     19 S          -3.9094    0.9137   -1.3735 S.O2    1  UNL11       0.0252
     20 O          -4.2805   -0.5444   -1.2190 O.2     1  UNL11      -0.1643
     21 O          -5.1550    1.7082   -1.0068 O.2     1  UNL11      -0.1643
     22 C          -3.5540    1.1810   -3.0542 C.ar    1  UNL11       0.0963
     23 C          -2.4975    0.4467   -3.5917 C.ar    1  UNL11      -0.0363
     24 C          -2.1261    0.5943   -4.9113 C.ar    1  UNL11      -0.0572
     25 C          -2.8130    1.4845   -5.7114 C.ar    1  UNL11      -0.0263
     26 C          -3.8548    2.2018   -5.1626 C.ar    1  UNL11       0.1252
     27 F          -4.5422    3.0841   -5.9303 F       1  UNL11      -0.2054
     28 C          -4.2495    2.0761   -3.8481 C.ar    1  UNL11      -0.0012
     29 C          -1.3493    0.7015   -0.4423 C.ar    1  UNL11      -0.0243
     30 H           2.2514    2.0297    0.9121 H       1  UNL11       0.1731
     31 H           4.2188    0.6383    1.0412 H       1  UNL11       0.1731
     32 H           1.6641    1.0417   -1.3172 H       1  UNL11       0.0626
     33 H          -0.2780    0.5757   -2.7590 H       1  UNL11       0.0618
     34 H          -0.6769   -1.6403   -3.6996 H       1  UNL11       0.0618
     35 H           0.9792   -3.4596   -3.1461 H       1  UNL11       0.0646
     36 H           0.2933    2.3285    2.0243 H       1  UNL11       0.0625
     37 H          -1.8601    3.4023    2.2154 H       1  UNL11       0.0618
     38 H          -3.7048    2.7855    0.7370 H       1  UNL11       0.0637
     39 H          -1.9358   -0.2615   -2.9971 H       1  UNL11       0.0637
     40 H          -1.2947    0.0182   -5.3412 H       1  UNL11       0.0619
     41 H          -2.5474    1.6287   -6.7617 H       1  UNL11       0.0646
     42 H          -5.0736    2.6414   -3.4065 H       1  UNL11       0.0665
     43 H          -1.1629   -0.0719   -1.1864 H       1  UNL11       0.0644
@<TRIPOS>BOND
     1     1     2    2
     2     2     3   am
     3     2    14    1
     4     3     4    1
     5     3    30    1
     6     4     5   am
     7     4    31    1
     8     5     6    2
     9     5     7    1
    10     7     8   ar
    11     8     9   ar
    12     8    32    1
    13     9    10   ar
    14     9    33    1
    15    10    11   ar
    16    10    34    1
    17    11    12   ar
    18    11    35    1
    19    12    13    1
    20    12     7   ar
    21    14    15   ar
    22    15    16   ar
    23    15    36    1
    24    16    17   ar
    25    16    37    1
    26    17    18   ar
    27    17    38    1
    28    18    19    1
    29    18    29   ar
    30    19    20    2
    31    19    21    2
    32    19    22    1
    33    22    23   ar
    34    23    24   ar
    35    23    39    1
    36    24    25   ar
    37    24    40    1
    38    25    26   ar
    39    25    41    1
    40    26    27    1
    41    26    28   ar
    42    28    22   ar
    43    28    42    1
    44    29    14   ar
    45    29    43    1
@<TRIPOS>MOLECULE
*****
 43 45 0 0 0
SMALL
GASTEIGER

@<TRIPOS>ATOM
      1 O           1.1459   -0.4852   -0.6306 O.2     1  UNL11      -0.2687
      2 C           1.0039    0.3934    0.2653 C.2     1  UNL11       0.2602
      3 N           2.1034    0.7061    1.1006 N.am    1  UNL11      -0.2301
      4 N           3.3421    0.0527    0.9431 N.am    1  UNL11      -0.2300
      5 C           4.4864    0.7801    1.2773 C.2     1  UNL11       0.2629
      6 O           4.3830    1.9919    1.7075 O.2     1  UNL11      -0.2686
      7 C           5.8257    0.2383    1.1647 C.ar    1  UNL11       0.0733
      8 C           5.9881   -1.0768    0.6992 C.ar    1  UNL11      -0.0468
      9 C           7.2261   -1.6142    0.5948 C.ar    1  UNL11      -0.0609
     10 C           8.3880   -0.9404    0.9241 C.ar    1  UNL11      -0.0590
     11 C           8.2376    0.3518    1.3818 C.ar    1  UNL11      -0.0257
     12 C           6.9622    0.9199    1.4946 C.ar    1  UNL11       0.1355
     13 F           6.9326    2.1921    1.9405 F       1  UNL11      -0.2047
     14 C          -0.2833    1.0440    0.3959 C.ar    1  UNL11       0.0400
     15 C          -0.5061    2.0270    1.3469 C.ar    1  UNL11      -0.0495
     16 C          -1.7253    2.6497    1.4703 C.ar    1  UNL11      -0.0592
     17 C          -2.7358    2.2782    0.6248 C.ar    1  UNL11      -0.0364
     18 C          -2.5805    1.3085   -0.3412 C.ar    1  UNL11       0.0943
     19 S          -3.9094    0.9137   -1.3735 S.O2    1  UNL11       0.0252
     20 O          -3.5459    1.1676   -2.8195 O.2     1  UNL11      -0.1643
     21 O          -4.2676   -0.5629   -1.2806 O.2     1  UNL11      -0.1643
     22 C          -5.3299    1.8536   -1.0253 C.ar    1  UNL11       0.0963
     23 C          -6.1792    2.1195   -2.0986 C.ar    1  UNL11      -0.0363
     24 C          -7.3256    2.8672   -1.9318 C.ar    1  UNL11      -0.0572
     25 C          -7.6351    3.3598   -0.6804 C.ar    1  UNL11      -0.0263
     26 C          -6.7835    3.0868    0.3691 C.ar    1  UNL11       0.1252
     27 F          -7.0673    3.5631    1.6072 F       1  UNL11      -0.2054
     28 C          -5.6314    2.3426    0.2338 C.ar    1  UNL11      -0.0012
     29 C          -1.3493    0.7015   -0.4423 C.ar    1  UNL11      -0.0243
     30 H           2.0389    1.4201    1.8548 H       1  UNL11       0.1731
     31 H           3.3509   -0.8949    0.5962 H       1  UNL11       0.1731
     32 H           5.0754   -1.6159    0.4372 H       1  UNL11       0.0626
     33 H           7.3016   -2.6488    0.2255 H       1  UNL11       0.0618
     34 H           9.3388   -1.4410    0.8132 H       1  UNL11       0.0618
     35 H           9.0936    0.9245    1.6519 H       1  UNL11       0.0646
     36 H           0.2933    2.3285    2.0243 H       1  UNL11       0.0625
     37 H          -1.8601    3.4023    2.2154 H       1  UNL11       0.0618
     38 H          -3.7048    2.7855    0.7370 H       1  UNL11       0.0637
     39 H          -5.9715    1.7500   -3.0941 H       1  UNL11       0.0637
     40 H          -7.9994    3.0799   -2.7735 H       1  UNL11       0.0619
     41 H          -8.5347    3.9566   -0.5095 H       1  UNL11       0.0646
     42 H          -4.9518    2.1227    1.0606 H       1  UNL11       0.0665
     43 H          -1.1629   -0.0719   -1.1864 H       1  UNL11       0.0644
@<TRIPOS>BOND
     1     1     2    2
     2     2     3   am
     3     2    14    1
     4     3     4    1
     5     3    30    1
     6     4     5   am
     7     4    31    1
     8     5     6    2
     9     5     7    1
    10     7     8   ar
    11     8     9   ar
    12     8    32    1
    13     9    10   ar
    14     9    33    1
    15    10    11   ar
    16    10    34    1
    17    11    12   ar
    18    11    35    1
    19    12    13    1
    20    12     7   ar
    21    14    15   ar
    22    15    16   ar
    23    15    36    1
    24    16    17   ar
    25    16    37    1
    26    17    18   ar
    27    17    38    1
    28    18    19    1
    29    18    29   ar
    30    19    20    2
    31    19    21    2
    32    19    22    1
    33    22    23   ar
    34    23    24   ar
    35    23    39    1
    36    24    25   ar
    37    24    40    1
    38    25    26   ar
    39    25    41    1
    40    26    27    1
    41    26    28   ar
    42    28    22   ar
    43    28    42    1
    44    29    14   ar
    45    29    43    1
@<TRIPOS>MOLECULE
*****
 43 45 0 0 0
SMALL
GASTEIGER

@<TRIPOS>ATOM
      1 O           1.9355    0.7409    1.0437 O.2     1  UNL11      -0.2687
      2 C           1.0039    0.3934    0.2653 C.2     1  UNL11       0.2602
      3 N           1.2538   -0.6138   -0.6977 N.am    1  UNL11      -0.2301
      4 N           0.2484   -1.0227   -1.5965 N.am    1  UNL11      -0.2300
      5 C          -0.7038   -0.0663   -1.9559 C.2     1  UNL11       0.2629
      6 O          -1.6609   -0.3745   -2.7640 O.2     1  UNL11      -0.2686
      7 C          -0.6791    1.2954   -1.4607 C.ar    1  UNL11       0.0733
      8 C          -1.8941    1.9829   -1.3064 C.ar    1  UNL11      -0.0468
      9 C          -1.9017    3.2598   -0.8574 C.ar    1  UNL11      -0.0609
     10 C          -0.7598    3.9660   -0.5258 C.ar    1  UNL11      -0.0590
     11 C           0.4377    3.2982   -0.6741 C.ar    1  UNL11      -0.0257
     12 C           0.4597    1.9766   -1.1379 C.ar    1  UNL11       0.1355
     13 F           1.6827    1.4169   -1.2329 F       1  UNL11      -0.2047
     14 C          -0.2833    1.0440    0.3959 C.ar    1  UNL11       0.0400
     15 C          -0.5061    2.0270    1.3469 C.ar    1  UNL11      -0.0495
     16 C          -1.7253    2.6497    1.4703 C.ar    1  UNL11      -0.0592
     17 C          -2.7358    2.2782    0.6248 C.ar    1  UNL11      -0.0364
     18 C          -2.5805    1.3085   -0.3412 C.ar    1  UNL11       0.0943
     19 S          -3.9094    0.9137   -1.3735 S.O2    1  UNL11       0.0252
     20 O          -3.8849    1.7760   -2.6158 O.2     1  UNL11      -0.1643
     21 O          -3.8301   -0.5274   -1.8575 O.2     1  UNL11      -0.1643
     22 C          -5.4496    1.1584   -0.6053 C.ar    1  UNL11       0.0963
     23 C          -6.4887    0.3228   -1.0131 C.ar    1  UNL11      -0.0363
     24 C          -7.7527    0.4433   -0.4755 C.ar    1  UNL11      -0.0572
     25 C          -7.9908    1.4081    0.4821 C.ar    1  UNL11      -0.0263
     26 C          -6.9512    2.2253    0.8729 C.ar    1  UNL11       0.1252
     27 F          -7.1636    3.1819    1.8110 F       1  UNL11      -0.2054
     28 C          -5.6778    2.1289    0.3546 C.ar    1  UNL11      -0.0012
     29 C          -1.3493    0.7015   -0.4423 C.ar    1  UNL11      -0.0243
     30 H           2.1777   -1.0863   -0.7762 H       1  UNL11       0.1731
     31 H           0.2548   -1.9741   -1.9328 H       1  UNL11       0.1731
     32 H          -2.8005    1.4323   -1.5663 H       1  UNL11       0.0626
     33 H          -2.8790    3.7564   -0.7539 H       1  UNL11       0.0618
     34 H          -0.8508    4.9838   -0.1753 H       1  UNL11       0.0618
     35 H           1.3533    3.7866   -0.4356 H       1  UNL11       0.0646
     36 H           0.2933    2.3285    2.0243 H       1  UNL11       0.0625
     37 H          -1.8601    3.4023    2.2154 H       1  UNL11       0.0618
     38 H          -3.7048    2.7855    0.7370 H       1  UNL11       0.0637
     39 H          -6.3413   -0.4459   -1.7600 H       1  UNL11       0.0637
     40 H          -8.5757   -0.2124   -0.7922 H       1  UNL11       0.0619
     41 H          -8.9794    1.5338    0.9307 H       1  UNL11       0.0646
     42 H          -4.8496    2.7731    0.6592 H       1  UNL11       0.0665
     43 H          -1.1629   -0.0719   -1.1864 H       1  UNL11       0.0644
@<TRIPOS>BOND
     1     1     2    2
     2     2     3   am
     3     2    14    1
     4     3     4    1
     5     3    30    1
     6     4     5   am
     7     4    31    1
     8     5     6    2
     9     5     7    1
    10     7     8   ar
    11     8     9   ar
    12     8    32    1
    13     9    10   ar
    14     9    33    1
    15    10    11   ar
    16    10    34    1
    17    11    12   ar
    18    11    35    1
    19    12    13    1
    20    12     7   ar
    21    14    15   ar
    22    15    16   ar
    23    15    36    1
    24    16    17   ar
    25    16    37    1
    26    17    18   ar
    27    17    38    1
    28    18    19    1
    29    18    29   ar
    30    19    20    2
    31    19    21    2
    32    19    22    1
    33    22    23   ar
    34    23    24   ar
    35    23    39    1
    36    24    25   ar
    37    24    40    1
    38    25    26   ar
    39    25    41    1
    40    26    27    1
    41    26    28   ar
    42    28    22   ar
    43    28    42    1
    44    29    14   ar
    45    29    43    1
@<TRIPOS>MOLECULE
*****
 43 45 0 0 0
SMALL
GASTEIGER

@<TRIPOS>ATOM
      1 O           1.9355    0.7409    1.0437 O.2     1  UNL11      -0.2687
      2 C           1.0039    0.3934    0.2653 C.2     1  UNL11       0.2602
      3 N           1.2538   -0.6138   -0.6977 N.am    1  UNL11      -0.2301
      4 N           0.2484   -1.0227   -1.5965 N.am    1  UNL11      -0.2300
      5 C          -0.7038   -0.0663   -1.9559 C.2     1  UNL11       0.2629
      6 O          -1.6609   -0.3745   -2.7640 O.2     1  UNL11      -0.2686
      7 C          -0.6791    1.2954   -1.4607 C.ar    1  UNL11       0.0733
      8 C          -1.8941    1.9829   -1.3064 C.ar    1  UNL11      -0.0468
      9 C          -1.9017    3.2598   -0.8574 C.ar    1  UNL11      -0.0609
     10 C          -0.7598    3.9660   -0.5258 C.ar    1  UNL11      -0.0590
     11 C           0.4377    3.2982   -0.6741 C.ar    1  UNL11      -0.0257
     12 C           0.4597    1.9766   -1.1379 C.ar    1  UNL11       0.1355
     13 F           1.6827    1.4169   -1.2329 F       1  UNL11      -0.2047
     14 C          -0.2833    1.0440    0.3959 C.ar    1  UNL11       0.0400
     15 C          -0.5061    2.0270    1.3469 C.ar    1  UNL11      -0.0495
     16 C          -1.7253    2.6497    1.4703 C.ar    1  UNL11      -0.0592
     17 C          -2.7358    2.2782    0.6248 C.ar    1  UNL11      -0.0364
     18 C          -2.5805    1.3085   -0.3412 C.ar    1  UNL11       0.0943
     19 S          -3.9094    0.9137   -1.3735 S.O2    1  UNL11       0.0252
     20 O          -3.8849    1.7760   -2.6158 O.2     1  UNL11      -0.1643
     21 O          -3.8301   -0.5274   -1.8575 O.2     1  UNL11      -0.1643
     22 C          -5.4496    1.1584   -0.6053 C.ar    1  UNL11       0.0963
     23 C          -5.5101    2.1591    0.3638 C.ar    1  UNL11      -0.0363
     24 C          -6.6811    2.4245    1.0417 C.ar    1  UNL11      -0.0572
     25 C          -7.8107    1.6857    0.7546 C.ar    1  UNL11      -0.0263
     26 C          -7.7320    0.7003   -0.2067 C.ar    1  UNL11       0.1252
     27 F          -8.8297   -0.0397   -0.5031 F       1  UNL11      -0.2054
     28 C          -6.5769    0.4120   -0.9010 C.ar    1  UNL11      -0.0012
     29 C          -1.3493    0.7015   -0.4423 C.ar    1  UNL11      -0.0243
     30 H           2.1777   -1.0863   -0.7762 H       1  UNL11       0.1731
     31 H           0.2548   -1.9741   -1.9328 H       1  UNL11       0.1731
     32 H          -2.8005    1.4323   -1.5663 H       1  UNL11       0.0626
     33 H          -2.8790    3.7564   -0.7539 H       1  UNL11       0.0618
     34 H          -0.8508    4.9838   -0.1753 H       1  UNL11       0.0618
     35 H           1.3533    3.7866   -0.4356 H       1  UNL11       0.0646
     36 H           0.2933    2.3285    2.0243 H       1  UNL11       0.0625
     37 H          -1.8601    3.4023    2.2154 H       1  UNL11       0.0618
     38 H          -3.7048    2.7855    0.7370 H       1  UNL11       0.0637
     39 H          -4.6467    2.7603    0.6161 H       1  UNL11       0.0637
     40 H          -6.7356    3.2122    1.8062 H       1  UNL11       0.0619
     41 H          -8.7567    1.8669    1.2712 H       1  UNL11       0.0646
     42 H          -6.5071   -0.3675   -1.6634 H       1  UNL11       0.0665
     43 H          -1.1629   -0.0719   -1.1864 H       1  UNL11       0.0644
@<TRIPOS>BOND
     1     1     2    2
     2     2     3   am
     3     2    14    1
     4     3     4    1
     5     3    30    1
     6     4     5   am
     7     4    31    1
     8     5     6    2
     9     5     7    1
    10     7     8   ar
    11     8     9   ar
    12     8    32    1
    13     9    10   ar
    14     9    33    1
    15    10    11   ar
    16    10    34    1
    17    11    12   ar
    18    11    35    1
    19    12    13    1
    20    12     7   ar
    21    14    15   ar
    22    15    16   ar
    23    15    36    1
    24    16    17   ar
    25    16    37    1
    26    17    18   ar
    27    17    38    1
    28    18    19    1
    29    18    29   ar
    30    19    20    2
    31    19    21    2
    32    19    22    1
    33    22    23   ar
    34    23    24   ar
    35    23    39    1
    36    24    25   ar
    37    24    40    1
    38    25    26   ar
    39    25    41    1
    40    26    27    1
    41    26    28   ar
    42    28    22   ar
    43    28    42    1
    44    29    14   ar
    45    29    43    1
@<TRIPOS>MOLECULE
*****
 43 45 0 0 0
SMALL
GASTEIGER

@<TRIPOS>ATOM
      1 O           2.0411    1.0439    0.5749 O.2     1  UNL11      -0.2687
      2 C           1.0039    0.3934    0.2653 C.2     1  UNL11       0.2602
      3 N           1.1407   -0.9390   -0.1934 N.am    1  UNL11      -0.2301
      4 N           2.4104   -1.5399   -0.3064 N.am    1  UNL11      -0.2300
      5 C           3.4870   -0.6934   -0.5799 C.2     1  UNL11       0.2629
      6 O           4.6760   -1.1764   -0.7102 O.2     1  UNL11      -0.2686
      7 C           3.3439    0.7409   -0.7291 C.ar    1  UNL11       0.0733
      8 C           4.4173    1.5709   -0.3662 C.ar    1  UNL11      -0.0468
      9 C           4.3085    2.9150   -0.4831 C.ar    1  UNL11      -0.0609
     10 C           3.1772    3.5579   -0.9512 C.ar    1  UNL11      -0.0590
     11 C           2.1184    2.7503   -1.3102 C.ar    1  UNL11      -0.0257
     12 C           2.2178    1.3579   -1.1941 C.ar    1  UNL11       0.1355
     13 F           1.1287    0.6655   -1.5845 F       1  UNL11      -0.2047
     14 C          -0.2833    1.0440    0.3959 C.ar    1  UNL11       0.0400
     15 C          -0.5061    2.0270    1.3469 C.ar    1  UNL11      -0.0495
     16 C          -1.7253    2.6497    1.4703 C.ar    1  UNL11      -0.0592
     17 C          -2.7358    2.2782    0.6248 C.ar    1  UNL11      -0.0364
     18 C          -2.5805    1.3085   -0.3412 C.ar    1  UNL11       0.0943
     19 S          -3.9094    0.9137   -1.3735 S.O2    1  UNL11       0.0252
     20 O          -3.5178   -0.1823   -2.3394 O.2     1  UNL11      -0.1643
     21 O          -5.0911    0.3751   -0.5793 O.2     1  UNL11      -0.1643
     22 C          -4.4471    2.2689   -2.3205 C.ar    1  UNL11       0.0963
     23 C          -5.4427    3.0663   -1.7573 C.ar    1  UNL11      -0.0363
     24 C          -5.9479    4.1576   -2.4317 C.ar    1  UNL11      -0.0572
     25 C          -5.4585    4.4635   -3.6852 C.ar    1  UNL11      -0.0263
     26 C          -4.4742    3.6637   -4.2262 C.ar    1  UNL11       0.1252
     27 F          -3.9805    3.9447   -5.4581 F       1  UNL11      -0.2054
     28 C          -3.9493    2.5672   -3.5768 C.ar    1  UNL11      -0.0012
     29 C          -1.3493    0.7015   -0.4423 C.ar    1  UNL11      -0.0243
     30 H           0.3189   -1.5176   -0.4632 H       1  UNL11       0.1731
     31 H           2.4867   -2.5396   -0.1927 H       1  UNL11       0.1731
     32 H           5.3144    1.0709    0.0047 H       1  UNL11       0.0626
     33 H           5.1769    3.5230   -0.1853 H       1  UNL11       0.0618
     34 H           3.1697    4.6364   -1.0134 H       1  UNL11       0.0618
     35 H           1.2183    3.1840   -1.6783 H       1  UNL11       0.0646
     36 H           0.2933    2.3285    2.0243 H       1  UNL11       0.0625
     37 H          -1.8601    3.4023    2.2154 H       1  UNL11       0.0618
     38 H          -3.7048    2.7855    0.7370 H       1  UNL11       0.0637
     39 H          -5.8508    2.8597   -0.7768 H       1  UNL11       0.0637
     40 H          -6.7321    4.7904   -1.9931 H       1  UNL11       0.0619
     41 H          -5.8345    5.3203   -4.2502 H       1  UNL11       0.0646
     42 H          -3.1698    1.9289   -3.9995 H       1  UNL11       0.0665
     43 H          -1.1629   -0.0719   -1.1864 H       1  UNL11       0.0644
@<TRIPOS>BOND
     1     1     2    2
     2     2     3   am
     3     2    14    1
     4     3     4    1
     5     3    30    1
     6     4     5   am
     7     4    31    1
     8     5     6    2
     9     5     7    1
    10     7     8   ar
    11     8     9   ar
    12     8    32    1
    13     9    10   ar
    14     9    33    1
    15    10    11   ar
    16    10    34    1
    17    11    12   ar
    18    11    35    1
    19    12    13    1
    20    12     7   ar
    21    14    15   ar
    22    15    16   ar
    23    15    36    1
    24    16    17   ar
    25    16    37    1
    26    17    18   ar
    27    17    38    1
    28    18    19    1
    29    18    29   ar
    30    19    20    2
    31    19    21    2
    32    19    22    1
    33    22    23   ar
    34    23    24   ar
    35    23    39    1
    36    24    25   ar
    37    24    40    1
    38    25    26   ar
    39    25    41    1
    40    26    27    1
    41    26    28   ar
    42    28    22   ar
    43    28    42    1
    44    29    14   ar
    45    29    43    1
