@<TRIPOS>MOLECULE
*****
 38 40 0 0 0
SMALL
GASTEIGER

@<TRIPOS>ATOM
      1 O          -1.5403    2.1878   -1.2415 O.2     1  UNL11      -0.2449
      2 C          -1.2611    1.0577   -0.8470 C.2     1  UNL11       0.3404
      3 O           0.1327    0.7916   -0.8609 O.3     1  UNL11      -0.4577
      4 C           1.0099    1.3862   -1.7732 C.3     1  UNL11       0.1267
      5 C           0.8907    0.6190   -3.0717 C.3     1  UNL11       0.1236
      6 O           1.2312   -0.7301   -2.8140 O.3     1  UNL11      -0.4886
      7 C           0.6381   -1.7596   -3.5708 C.ar    1  UNL11       0.1208
      8 C           0.2487   -1.5268   -4.8731 C.ar    1  UNL11      -0.0172
      9 C          -0.3346   -2.5331   -5.6231 C.ar    1  UNL11      -0.0230
     10 C          -0.5216   -3.7743   -5.0490 C.ar    1  UNL11       0.1236
     11 F          -1.1028   -4.7496   -5.8205 F       1  UNL11      -0.2055
     12 C          -0.1435   -4.0392   -3.7502 C.ar    1  UNL11      -0.0230
     13 C           0.4359   -3.0081   -3.0333 C.ar    1  UNL11      -0.0172
     14 C          -2.1204   -0.0027   -0.3868 C.2     1  UNL11       0.0820
     15 C          -1.5930   -1.0359    0.4061 C.2     1  UNL11       0.0674
     16 C          -2.3701   -2.0610    0.8647 C.2     1  UNL11       0.4077
     17 O          -1.8277   -2.9555    1.5726 O.2     1  UNL11      -0.2148
     18 N          -3.6698   -2.1155    0.5715 N.am    1  UNL11      -0.1444
     19 C          -4.2284   -1.1538   -0.1837 C.ar    1  UNL11       0.2104
     20 C          -5.5824   -1.2329   -0.4747 C.ar    1  UNL11       0.0097
     21 C          -6.1435   -0.2571   -1.2395 C.ar    1  UNL11      -0.0555
     22 C          -5.4112    0.8004   -1.7300 C.ar    1  UNL11      -0.0608
     23 C          -4.0557    0.8960   -1.4490 C.ar    1  UNL11      -0.0475
     24 C          -3.4732   -0.0814   -0.6778 C.ar    1  UNL11       0.0599
     25 H           2.0787    1.2727   -1.4346 H       1  UNL11       0.0732
     26 H           0.8498    2.4650   -1.9087 H       1  UNL11       0.0732
     27 H          -0.2056    0.6179   -3.3273 H       1  UNL11       0.0731
     28 H           1.5055    1.0626   -3.8783 H       1  UNL11       0.0731
     29 H           0.3991   -0.5489   -5.3165 H       1  UNL11       0.0655
     30 H          -0.6457   -2.3586   -6.6534 H       1  UNL11       0.0647
     31 H          -0.2910   -5.0095   -3.3054 H       1  UNL11       0.0647
     32 H           0.7412   -3.1802   -2.0214 H       1  UNL11       0.0655
     33 H          -0.5265   -0.9657    0.6303 H       1  UNL11       0.0728
     34 H          -4.2637   -2.9206    0.9358 H       1  UNL11       0.4475
     35 H          -6.1216   -2.0775   -0.0715 H       1  UNL11       0.0683
     36 H          -7.2166   -0.3468   -1.4529 H       1  UNL11       0.0620
     37 H          -5.8750    1.5625   -2.3338 H       1  UNL11       0.0618
     38 H          -3.4849    1.7243   -1.8339 H       1  UNL11       0.0626
@<TRIPOS>BOND
     1     1     2    2
     2     2     3    1
     3     2    14    1
     4     3     4    1
     5     4     5    1
     6     4    25    1
     7     4    26    1
     8     5     6    1
     9     5    27    1
    10     5    28    1
    11     6     7    1
    12     7     8   ar
    13     8     9   ar
    14     8    29    1
    15     9    10   ar
    16     9    30    1
    17    10    11    1
    18    10    12   ar
    19    12    13   ar
    20    12    31    1
    21    13     7   ar
    22    13    32    1
    23    14    15    2
    24    15    16    1
    25    15    33    1
    26    16    17    2
    27    16    18   am
    28    18    19    1
    29    18    34    1
    30    19    20   ar
    31    20    21   ar
    32    20    35    1
    33    21    22   ar
    34    21    36    1
    35    22    23   ar
    36    22    37    1
    37    23    24   ar
    38    23    38    1
    39    24    14    1
    40    24    19   ar
@<TRIPOS>MOLECULE
*****
 38 40 0 0 0
SMALL
GASTEIGER

@<TRIPOS>ATOM
      1 O          -1.5403    2.1878   -1.2415 O.2     1  UNL11      -0.2449
      2 C          -1.2611    1.0577   -0.8470 C.2     1  UNL11       0.3404
      3 O           0.1327    0.7916   -0.8609 O.3     1  UNL11      -0.4577
      4 C           0.9052    0.8508   -2.0250 C.3     1  UNL11       0.1267
      5 C           0.8135    2.2669   -2.5498 C.3     1  UNL11       0.1236
      6 O          -0.5492    2.5499   -2.8051 O.3     1  UNL11      -0.4886
      7 C          -1.5274    1.5667   -2.5591 C.ar    1  UNL11       0.1208
      8 C          -1.1607    0.3309   -2.0689 C.ar    1  UNL11      -0.0172
      9 C          -2.1158   -0.6403   -1.8246 C.ar    1  UNL11      -0.0230
     10 C          -3.4421   -0.3548   -2.0785 C.ar    1  UNL11       0.1236
     11 F          -4.3635   -1.3403   -1.8251 F       1  UNL11      -0.2055
     12 C          -3.8414    0.8702   -2.5684 C.ar    1  UNL11      -0.0230
     13 C          -2.8576    1.8143   -2.7996 C.ar    1  UNL11      -0.0172
     14 C          -2.1204   -0.0027   -0.3868 C.2     1  UNL11       0.0820
     15 C          -3.4853    0.0087   -0.7204 C.2     1  UNL11       0.0674
     16 C          -4.3368   -0.9755   -0.3064 C.2     1  UNL11       0.4077
     17 O          -5.5515   -0.9000   -0.6442 O.2     1  UNL11      -0.2148
     18 N          -3.8956   -1.9911    0.4366 N.am    1  UNL11      -0.1444
     19 C          -2.5989   -2.0535    0.7860 C.ar    1  UNL11       0.2104
     20 C          -2.1644   -3.1200    1.5593 C.ar    1  UNL11       0.0097
     21 C          -0.8510   -3.1789    1.9105 C.ar    1  UNL11      -0.0555
     22 C           0.0542   -2.2168    1.5230 C.ar    1  UNL11      -0.0608
     23 C          -0.3624   -1.1429    0.7493 C.ar    1  UNL11      -0.0475
     24 C          -1.6859   -1.0682    0.3858 C.ar    1  UNL11       0.0599
     25 H           0.4741    0.1868   -2.8269 H       1  UNL11       0.0732
     26 H           1.9449    0.5220   -1.8883 H       1  UNL11       0.0732
     27 H           1.1119    2.9314   -1.6915 H       1  UNL11       0.0731
     28 H           1.4515    2.4257   -3.4403 H       1  UNL11       0.0731
     29 H          -0.1166    0.1148   -1.8722 H       1  UNL11       0.0655
     30 H          -1.8355   -1.6201   -1.4371 H       1  UNL11       0.0647
     31 H          -4.8779    1.0895   -2.7654 H       1  UNL11       0.0647
     32 H          -3.1336    2.7765   -3.1802 H       1  UNL11       0.0655
     33 H          -3.8187    0.8517   -1.3293 H       1  UNL11       0.0728
     34 H          -4.5707   -2.7515    0.7525 H       1  UNL11       0.4475
     35 H          -2.9050   -3.8535    1.8426 H       1  UNL11       0.0683
     36 H          -0.5369   -4.0345    2.5225 H       1  UNL11       0.0620
     37 H           1.0899   -2.2823    1.8119 H       1  UNL11       0.0618
     38 H           0.3477   -0.3914    0.4474 H       1  UNL11       0.0626
@<TRIPOS>BOND
     1     1     2    2
     2     2     3    1
     3     2    14    1
     4     3     4    1
     5     4     5    1
     6     4    25    1
     7     4    26    1
     8     5     6    1
     9     5    27    1
    10     5    28    1
    11     6     7    1
    12     7     8   ar
    13     8     9   ar
    14     8    29    1
    15     9    10   ar
    16     9    30    1
    17    10    11    1
    18    10    12   ar
    19    12    13   ar
    20    12    31    1
    21    13     7   ar
    22    13    32    1
    23    14    15    2
    24    15    16    1
    25    15    33    1
    26    16    17    2
    27    16    18   am
    28    18    19    1
    29    18    34    1
    30    19    20   ar
    31    20    21   ar
    32    20    35    1
    33    21    22   ar
    34    21    36    1
    35    22    23   ar
    36    22    37    1
    37    23    24   ar
    38    23    38    1
    39    24    14    1
    40    24    19   ar
@<TRIPOS>MOLECULE
*****
 38 40 0 0 0
SMALL
GASTEIGER

@<TRIPOS>ATOM
      1 O          -1.5403    2.1878   -1.2415 O.2     1  UNL11      -0.2449
      2 C          -1.2611    1.0577   -0.8470 C.2     1  UNL11       0.3404
      3 O           0.1327    0.7916   -0.8609 O.3     1  UNL11      -0.4577
      4 C           1.0802    1.7287   -1.2845 C.3     1  UNL11       0.1267
      5 C           0.7474    2.0833   -2.7172 C.3     1  UNL11       0.1236
      6 O           0.8002    0.8952   -3.4840 O.3     1  UNL11      -0.4886
      7 C           1.6716   -0.1450   -3.1059 C.ar    1  UNL11       0.1208
      8 C           1.9972   -0.3288   -1.7785 C.ar    1  UNL11      -0.0172
      9 C           2.8526   -1.3485   -1.3991 C.ar    1  UNL11      -0.0230
     10 C           3.3759   -2.1798   -2.3686 C.ar    1  UNL11       0.1236
     11 F           4.2208   -3.1808   -1.9581 F       1  UNL11      -0.2055
     12 C           3.0703   -2.0227   -3.7035 C.ar    1  UNL11      -0.0230
     13 C           2.2121   -0.9927   -4.0428 C.ar    1  UNL11      -0.0172
     14 C          -2.1204   -0.0027   -0.3868 C.2     1  UNL11       0.0820
     15 C          -3.4225    0.2926    0.0508 C.2     1  UNL11       0.0674
     16 C          -4.2717   -0.6804    0.4952 C.2     1  UNL11       0.4077
     17 O          -5.4281   -0.3413    0.8735 O.2     1  UNL11      -0.2148
     18 N          -3.8882   -1.9571    0.5287 N.am    1  UNL11      -0.1444
     19 C          -2.6530   -2.2978    0.1218 C.ar    1  UNL11       0.2104
     20 C          -2.2779   -3.6326    0.1662 C.ar    1  UNL11       0.0097
     21 C          -1.0266   -3.9727   -0.2466 C.ar    1  UNL11      -0.0555
     22 C          -0.1271   -3.0366   -0.7045 C.ar    1  UNL11      -0.0608
     23 C          -0.4849   -1.6969   -0.7560 C.ar    1  UNL11      -0.0475
     24 C          -1.7452   -1.3362   -0.3427 C.ar    1  UNL11       0.0599
     25 H           2.1122    1.2766   -1.3010 H       1  UNL11       0.0732
     26 H           1.1502    2.6159   -0.6396 H       1  UNL11       0.0732
     27 H          -0.3328    2.4000   -2.7113 H       1  UNL11       0.0731
     28 H           1.4106    2.8739   -3.1179 H       1  UNL11       0.0731
     29 H           1.5817    0.3287   -1.0231 H       1  UNL11       0.0655
     30 H           3.1158   -1.5017   -0.3522 H       1  UNL11       0.0647
     31 H           3.4809   -2.6738   -4.4577 H       1  UNL11       0.0647
     32 H           1.9540   -0.8428   -5.0713 H       1  UNL11       0.0655
     33 H          -3.7095    1.3455    0.0125 H       1  UNL11       0.0728
     34 H          -4.5606   -2.7053    0.8776 H       1  UNL11       0.4475
     35 H          -3.0119   -4.3358    0.5316 H       1  UNL11       0.0683
     36 H          -0.7586   -5.0363   -0.1999 H       1  UNL11       0.0620
     37 H           0.8589   -3.3271   -1.0268 H       1  UNL11       0.0618
     38 H           0.2206   -0.9663   -1.1146 H       1  UNL11       0.0626
@<TRIPOS>BOND
     1     1     2    2
     2     2     3    1
     3     2    14    1
     4     3     4    1
     5     4     5    1
     6     4    25    1
     7     4    26    1
     8     5     6    1
     9     5    27    1
    10     5    28    1
    11     6     7    1
    12     7     8   ar
    13     8     9   ar
    14     8    29    1
    15     9    10   ar
    16     9    30    1
    17    10    11    1
    18    10    12   ar
    19    12    13   ar
    20    12    31    1
    21    13     7   ar
    22    13    32    1
    23    14    15    2
    24    15    16    1
    25    15    33    1
    26    16    17    2
    27    16    18   am
    28    18    19    1
    29    18    34    1
    30    19    20   ar
    31    20    21   ar
    32    20    35    1
    33    21    22   ar
    34    21    36    1
    35    22    23   ar
    36    22    37    1
    37    23    24   ar
    38    23    38    1
    39    24    14    1
    40    24    19   ar
@<TRIPOS>MOLECULE
*****
 38 40 0 0 0
SMALL
GASTEIGER

@<TRIPOS>ATOM
      1 O          -1.5403    2.1878   -1.2415 O.2     1  UNL11      -0.2449
      2 C          -1.2611    1.0577   -0.8470 C.2     1  UNL11       0.3404
      3 O           0.1327    0.7916   -0.8609 O.3     1  UNL11      -0.4577
      4 C           1.0802    1.7287   -1.2845 C.3     1  UNL11       0.1267
      5 C           0.9615    2.9279   -0.3696 C.3     1  UNL11       0.1236
      6 O           1.2371    2.4985    0.9503 O.3     1  UNL11      -0.4886
      7 C           1.5500    1.1474    1.1968 C.ar    1  UNL11       0.1208
      8 C           1.0326    0.1571    0.3885 C.ar    1  UNL11      -0.0172
      9 C           1.3353   -1.1726    0.6242 C.ar    1  UNL11      -0.0230
     10 C           2.1631   -1.4944    1.6808 C.ar    1  UNL11       0.1236
     11 F           2.4430   -2.8224    1.8864 F       1  UNL11      -0.2055
     12 C           2.6963   -0.5286    2.5071 C.ar    1  UNL11      -0.0230
     13 C           2.3706    0.7885    2.2391 C.ar    1  UNL11      -0.0172
     14 C          -2.1204   -0.0027   -0.3868 C.2     1  UNL11       0.0820
     15 C          -3.4225    0.2926    0.0508 C.2     1  UNL11       0.0674
     16 C          -4.2717   -0.6804    0.4952 C.2     1  UNL11       0.4077
     17 O          -5.4281   -0.3413    0.8735 O.2     1  UNL11      -0.2148
     18 N          -3.8882   -1.9571    0.5287 N.am    1  UNL11      -0.1444
     19 C          -2.6530   -2.2978    0.1218 C.ar    1  UNL11       0.2104
     20 C          -2.2779   -3.6326    0.1662 C.ar    1  UNL11       0.0097
     21 C          -1.0266   -3.9727   -0.2466 C.ar    1  UNL11      -0.0555
     22 C          -0.1271   -3.0366   -0.7045 C.ar    1  UNL11      -0.0608
     23 C          -0.4849   -1.6969   -0.7560 C.ar    1  UNL11      -0.0475
     24 C          -1.7452   -1.3362   -0.3427 C.ar    1  UNL11       0.0599
     25 H           0.8438    2.0972   -2.3228 H       1  UNL11       0.0732
     26 H           2.1061    1.3374   -1.3299 H       1  UNL11       0.0732
     27 H           1.8066    3.6150   -0.6542 H       1  UNL11       0.0731
     28 H          -0.0245    3.4238   -0.4547 H       1  UNL11       0.0731
     29 H           0.3831    0.4184   -0.4394 H       1  UNL11       0.0655
     30 H           0.9311   -1.9625   -0.0094 H       1  UNL11       0.0647
     31 H           3.3423   -0.7836    3.3310 H       1  UNL11       0.0647
     32 H           2.7680    1.5639    2.8619 H       1  UNL11       0.0655
     33 H          -3.7095    1.3455    0.0125 H       1  UNL11       0.0728
     34 H          -4.5606   -2.7053    0.8776 H       1  UNL11       0.4475
     35 H          -3.0119   -4.3358    0.5316 H       1  UNL11       0.0683
     36 H          -0.7586   -5.0363   -0.1999 H       1  UNL11       0.0620
     37 H           0.8589   -3.3271   -1.0268 H       1  UNL11       0.0618
     38 H           0.2206   -0.9663   -1.1146 H       1  UNL11       0.0626
@<TRIPOS>BOND
     1     1     2    2
     2     2     3    1
     3     2    14    1
     4     3     4    1
     5     4     5    1
     6     4    25    1
     7     4    26    1
     8     5     6    1
     9     5    27    1
    10     5    28    1
    11     6     7    1
    12     7     8   ar
    13     8     9   ar
    14     8    29    1
    15     9    10   ar
    16     9    30    1
    17    10    11    1
    18    10    12   ar
    19    12    13   ar
    20    12    31    1
    21    13     7   ar
    22    13    32    1
    23    14    15    2
    24    15    16    1
    25    15    33    1
    26    16    17    2
    27    16    18   am
    28    18    19    1
    29    18    34    1
    30    19    20   ar
    31    20    21   ar
    32    20    35    1
    33    21    22   ar
    34    21    36    1
    35    22    23   ar
    36    22    37    1
    37    23    24   ar
    38    23    38    1
    39    24    14    1
    40    24    19   ar
@<TRIPOS>MOLECULE
*****
 38 40 0 0 0
SMALL
GASTEIGER

@<TRIPOS>ATOM
      1 O          -1.5403    2.1878   -1.2415 O.2     1  UNL11      -0.2449
      2 C          -1.2611    1.0577   -0.8470 C.2     1  UNL11       0.3404
      3 O           0.1327    0.7916   -0.8609 O.3     1  UNL11      -0.4577
      4 C           1.0543    1.5322   -0.1142 C.3     1  UNL11       0.1267
      5 C           0.9386    2.9721   -0.5640 C.3     1  UNL11       0.1236
      6 O           1.8771    3.7352    0.1705 O.3     1  UNL11      -0.4886
      7 C           1.8026    3.7731    1.5766 C.ar    1  UNL11       0.1208
      8 C           2.9474    3.9382    2.3275 C.ar    1  UNL11      -0.0172
      9 C           2.8824    3.9765    3.7095 C.ar    1  UNL11      -0.0230
     10 C           1.6546    3.8470    4.3265 C.ar    1  UNL11       0.1236
     11 F           1.6258    3.8894    5.6982 F       1  UNL11      -0.2055
     12 C           0.4921    3.6807    3.6048 C.ar    1  UNL11      -0.0230
     13 C           0.5981    3.6476    2.2263 C.ar    1  UNL11      -0.0172
     14 C          -2.1204   -0.0027   -0.3868 C.2     1  UNL11       0.0820
     15 C          -1.5930   -1.0359    0.4061 C.2     1  UNL11       0.0674
     16 C          -2.3701   -2.0610    0.8647 C.2     1  UNL11       0.4077
     17 O          -1.8277   -2.9555    1.5726 O.2     1  UNL11      -0.2148
     18 N          -3.6698   -2.1155    0.5715 N.am    1  UNL11      -0.1444
     19 C          -4.2284   -1.1538   -0.1837 C.ar    1  UNL11       0.2104
     20 C          -5.5824   -1.2329   -0.4747 C.ar    1  UNL11       0.0097
     21 C          -6.1435   -0.2571   -1.2395 C.ar    1  UNL11      -0.0555
     22 C          -5.4112    0.8004   -1.7300 C.ar    1  UNL11      -0.0608
     23 C          -4.0557    0.8960   -1.4490 C.ar    1  UNL11      -0.0475
     24 C          -3.4732   -0.0814   -0.6778 C.ar    1  UNL11       0.0599
     25 H           2.1093    1.2111   -0.3463 H       1  UNL11       0.0732
     26 H           0.9386    1.4232    0.9732 H       1  UNL11       0.0732
     27 H           1.2944    2.9889   -1.6319 H       1  UNL11       0.0731
     28 H          -0.0929    3.3609   -0.4630 H       1  UNL11       0.0731
     29 H           3.9080    4.0391    1.8350 H       1  UNL11       0.0655
     30 H           3.7821    4.1066    4.3116 H       1  UNL11       0.0647
     31 H          -0.4648    3.5800    4.0901 H       1  UNL11       0.0647
     32 H          -0.2859    3.5197    1.6355 H       1  UNL11       0.0655
     33 H          -0.5265   -0.9657    0.6303 H       1  UNL11       0.0728
     34 H          -4.2637   -2.9206    0.9358 H       1  UNL11       0.4475
     35 H          -6.1216   -2.0775   -0.0715 H       1  UNL11       0.0683
     36 H          -7.2166   -0.3468   -1.4529 H       1  UNL11       0.0620
     37 H          -5.8750    1.5625   -2.3338 H       1  UNL11       0.0618
     38 H          -3.4849    1.7243   -1.8339 H       1  UNL11       0.0626
@<TRIPOS>BOND
     1     1     2    2
     2     2     3    1
     3     2    14    1
     4     3     4    1
     5     4     5    1
     6     4    25    1
     7     4    26    1
     8     5     6    1
     9     5    27    1
    10     5    28    1
    11     6     7    1
    12     7     8   ar
    13     8     9   ar
    14     8    29    1
    15     9    10   ar
    16     9    30    1
    17    10    11    1
    18    10    12   ar
    19    12    13   ar
    20    12    31    1
    21    13     7   ar
    22    13    32    1
    23    14    15    2
    24    15    16    1
    25    15    33    1
    26    16    17    2
    27    16    18   am
    28    18    19    1
    29    18    34    1
    30    19    20   ar
    31    20    21   ar
    32    20    35    1
    33    21    22   ar
    34    21    36    1
    35    22    23   ar
    36    22    37    1
    37    23    24   ar
    38    23    38    1
    39    24    14    1
    40    24    19   ar
@<TRIPOS>MOLECULE
*****
 38 40 0 0 0
SMALL
GASTEIGER

@<TRIPOS>ATOM
      1 O          -1.5403    2.1878   -1.2415 O.2     1  UNL11      -0.2449
      2 C          -1.2611    1.0577   -0.8470 C.2     1  UNL11       0.3404
      3 O           0.1327    0.7916   -0.8609 O.3     1  UNL11      -0.4577
      4 C           1.0976    1.7886   -0.6868 C.3     1  UNL11       0.1267
      5 C           1.2586    2.4909   -2.0172 C.3     1  UNL11       0.1236
      6 O           1.6607    1.5278   -2.9729 O.3     1  UNL11      -0.4886
      7 C           1.2607    0.1851   -2.8259 C.ar    1  UNL11       0.1208
      8 C           2.0653   -0.8332   -3.2922 C.ar    1  UNL11      -0.0172
      9 C           1.6793   -2.1548   -3.1515 C.ar    1  UNL11      -0.0230
     10 C           0.4766   -2.4399   -2.5374 C.ar    1  UNL11       0.1236
     11 F           0.1242   -3.7609   -2.4141 F       1  UNL11      -0.2055
     12 C          -0.3502   -1.4455   -2.0606 C.ar    1  UNL11      -0.0230
     13 C           0.0703   -0.1376   -2.2198 C.ar    1  UNL11      -0.0172
     14 C          -2.1204   -0.0027   -0.3868 C.2     1  UNL11       0.0820
     15 C          -3.4853    0.0087   -0.7204 C.2     1  UNL11       0.0674
     16 C          -4.3368   -0.9755   -0.3064 C.2     1  UNL11       0.4077
     17 O          -5.5515   -0.9000   -0.6442 O.2     1  UNL11      -0.2148
     18 N          -3.8956   -1.9911    0.4366 N.am    1  UNL11      -0.1444
     19 C          -2.5989   -2.0535    0.7860 C.ar    1  UNL11       0.2104
     20 C          -2.1644   -3.1200    1.5593 C.ar    1  UNL11       0.0097
     21 C          -0.8510   -3.1789    1.9105 C.ar    1  UNL11      -0.0555
     22 C           0.0542   -2.2168    1.5230 C.ar    1  UNL11      -0.0608
     23 C          -0.3624   -1.1429    0.7493 C.ar    1  UNL11      -0.0475
     24 C          -1.6859   -1.0682    0.3858 C.ar    1  UNL11       0.0599
     25 H           2.1010    1.3378   -0.4426 H       1  UNL11       0.0732
     26 H           0.8745    2.4881    0.1310 H       1  UNL11       0.0732
     27 H           0.2237    2.8139   -2.3202 H       1  UNL11       0.0731
     28 H           1.9603    3.3449   -1.9579 H       1  UNL11       0.0731
     29 H           3.0086   -0.6005   -3.7734 H       1  UNL11       0.0655
     30 H           2.3087   -2.9666   -3.5169 H       1  UNL11       0.0647
     31 H          -1.2886   -1.6720   -1.5816 H       1  UNL11       0.0647
     32 H          -0.5484    0.6593   -1.8607 H       1  UNL11       0.0655
     33 H          -3.8187    0.8517   -1.3293 H       1  UNL11       0.0728
     34 H          -4.5707   -2.7515    0.7525 H       1  UNL11       0.4475
     35 H          -2.9050   -3.8535    1.8426 H       1  UNL11       0.0683
     36 H          -0.5369   -4.0345    2.5225 H       1  UNL11       0.0620
     37 H           1.0899   -2.2823    1.8119 H       1  UNL11       0.0618
     38 H           0.3477   -0.3914    0.4474 H       1  UNL11       0.0626
@<TRIPOS>BOND
     1     1     2    2
     2     2     3    1
     3     2    14    1
     4     3     4    1
     5     4     5    1
     6     4    25    1
     7     4    26    1
     8     5     6    1
     9     5    27    1
    10     5    28    1
    11     6     7    1
    12     7     8   ar
    13     8     9   ar
    14     8    29    1
    15     9    10   ar
    16     9    30    1
    17    10    11    1
    18    10    12   ar
    19    12    13   ar
    20    12    31    1
    21    13     7   ar
    22    13    32    1
    23    14    15    2
    24    15    16    1
    25    15    33    1
    26    16    17    2
    27    16    18   am
    28    18    19    1
    29    18    34    1
    30    19    20   ar
    31    20    21   ar
    32    20    35    1
    33    21    22   ar
    34    21    36    1
    35    22    23   ar
    36    22    37    1
    37    23    24   ar
    38    23    38    1
    39    24    14    1
    40    24    19   ar
@<TRIPOS>MOLECULE
*****
 38 40 0 0 0
SMALL
GASTEIGER

@<TRIPOS>ATOM
      1 O          -1.5403    2.1878   -1.2415 O.2     1  UNL11      -0.2449
      2 C          -1.2611    1.0577   -0.8470 C.2     1  UNL11       0.3404
      3 O           0.1327    0.7916   -0.8609 O.3     1  UNL11      -0.4577
      4 C           1.0802    1.7287   -1.2845 C.3     1  UNL11       0.1267
      5 C           0.9615    2.9279   -0.3696 C.3     1  UNL11       0.1236
      6 O          -0.3585    3.4271   -0.4740 O.3     1  UNL11      -0.4886
      7 C          -1.3601    2.9468    0.3922 C.ar    1  UNL11       0.1208
      8 C          -1.0315    2.5135    1.6596 C.ar    1  UNL11      -0.0172
      9 C          -2.0099    2.0402    2.5165 C.ar    1  UNL11      -0.0230
     10 C          -3.3204    2.0078    2.0847 C.ar    1  UNL11       0.1236
     11 F          -4.2655    1.5327    2.9596 F       1  UNL11      -0.2055
     12 C          -3.6816    2.4335    0.8244 C.ar    1  UNL11      -0.0230
     13 C          -2.6756    2.8995   -0.0023 C.ar    1  UNL11      -0.0172
     14 C          -2.1204   -0.0027   -0.3868 C.2     1  UNL11       0.0820
     15 C          -3.4225    0.2926    0.0508 C.2     1  UNL11       0.0674
     16 C          -4.2717   -0.6804    0.4952 C.2     1  UNL11       0.4077
     17 O          -5.4281   -0.3413    0.8735 O.2     1  UNL11      -0.2148
     18 N          -3.8882   -1.9571    0.5287 N.am    1  UNL11      -0.1444
     19 C          -2.6530   -2.2978    0.1218 C.ar    1  UNL11       0.2104
     20 C          -2.2779   -3.6326    0.1662 C.ar    1  UNL11       0.0097
     21 C          -1.0266   -3.9727   -0.2466 C.ar    1  UNL11      -0.0555
     22 C          -0.1271   -3.0366   -0.7045 C.ar    1  UNL11      -0.0608
     23 C          -0.4849   -1.6969   -0.7560 C.ar    1  UNL11      -0.0475
     24 C          -1.7452   -1.3362   -0.3427 C.ar    1  UNL11       0.0599
     25 H           0.8438    2.0972   -2.3228 H       1  UNL11       0.0732
     26 H           2.1061    1.3374   -1.3299 H       1  UNL11       0.0732
     27 H           1.0580    2.5253    0.6772 H       1  UNL11       0.0731
     28 H           1.7233    3.7002   -0.5902 H       1  UNL11       0.0731
     29 H           0.0004    2.5423    1.9909 H       1  UNL11       0.0655
     30 H          -1.7598    1.6955    3.5202 H       1  UNL11       0.0647
     31 H          -4.7059    2.4067    0.4909 H       1  UNL11       0.0647
     32 H          -2.9219    3.2379   -0.9881 H       1  UNL11       0.0655
     33 H          -3.7095    1.3455    0.0125 H       1  UNL11       0.0728
     34 H          -4.5606   -2.7053    0.8776 H       1  UNL11       0.4475
     35 H          -3.0119   -4.3358    0.5316 H       1  UNL11       0.0683
     36 H          -0.7586   -5.0363   -0.1999 H       1  UNL11       0.0620
     37 H           0.8589   -3.3271   -1.0268 H       1  UNL11       0.0618
     38 H           0.2206   -0.9663   -1.1146 H       1  UNL11       0.0626
@<TRIPOS>BOND
     1     1     2    2
     2     2     3    1
     3     2    14    1
     4     3     4    1
     5     4     5    1
     6     4    25    1
     7     4    26    1
     8     5     6    1
     9     5    27    1
    10     5    28    1
    11     6     7    1
    12     7     8   ar
    13     8     9   ar
    14     8    29    1
    15     9    10   ar
    16     9    30    1
    17    10    11    1
    18    10    12   ar
    19    12    13   ar
    20    12    31    1
    21    13     7   ar
    22    13    32    1
    23    14    15    2
    24    15    16    1
    25    15    33    1
    26    16    17    2
    27    16    18   am
    28    18    19    1
    29    18    34    1
    30    19    20   ar
    31    20    21   ar
    32    20    35    1
    33    21    22   ar
    34    21    36    1
    35    22    23   ar
    36    22    37    1
    37    23    24   ar
    38    23    38    1
    39    24    14    1
    40    24    19   ar
@<TRIPOS>MOLECULE
*****
 38 40 0 0 0
SMALL
GASTEIGER

@<TRIPOS>ATOM
      1 O          -1.5403    2.1878   -1.2415 O.2     1  UNL11      -0.2449
      2 C          -1.2611    1.0577   -0.8470 C.2     1  UNL11       0.3404
      3 O           0.1327    0.7916   -0.8609 O.3     1  UNL11      -0.4577
      4 C           1.0543    1.5322   -0.1142 C.3     1  UNL11       0.1267
      5 C           1.7457    0.5678    0.8244 C.3     1  UNL11       0.1236
      6 O           0.7575   -0.0267    1.6445 O.3     1  UNL11      -0.4886
      7 C           0.8215    0.1278    3.0431 C.ar    1  UNL11       0.1208
      8 C           1.8429    0.8575    3.6142 C.ar    1  UNL11      -0.0172
      9 C           1.9127    1.0139    4.9875 C.ar    1  UNL11      -0.0230
     10 C           0.9449    0.4287    5.7787 C.ar    1  UNL11       0.1236
     11 F           1.0439    0.6035    7.1366 F       1  UNL11      -0.2055
     12 C          -0.0887   -0.3066    5.2392 C.ar    1  UNL11      -0.0230
     13 C          -0.1239   -0.4400    3.8631 C.ar    1  UNL11      -0.0172
     14 C          -2.1204   -0.0027   -0.3868 C.2     1  UNL11       0.0820
     15 C          -1.5629   -1.2223    0.0328 C.2     1  UNL11       0.0674
     16 C          -2.3387   -2.2548    0.4767 C.2     1  UNL11       0.4077
     17 O          -1.7685   -3.3223    0.8380 O.2     1  UNL11      -0.2148
     18 N          -3.6661   -2.1378    0.5270 N.am    1  UNL11      -0.1444
     19 C          -4.2543   -0.9933    0.1378 C.ar    1  UNL11       0.2104
     20 C          -5.6367   -0.8963    0.1996 C.ar    1  UNL11       0.0097
     21 C          -6.2276    0.2642   -0.1954 C.ar    1  UNL11      -0.0555
     22 C          -5.4981    1.3387   -0.6519 C.ar    1  UNL11      -0.0608
     23 C          -4.1144    1.2598   -0.7204 C.ar    1  UNL11      -0.0475
     24 C          -3.5016    0.0946   -0.3252 C.ar    1  UNL11       0.0599
     25 H           0.5291    2.2871    0.5369 H       1  UNL11       0.0732
     26 H           1.7666    2.1046   -0.7247 H       1  UNL11       0.0732
     27 H           2.1460   -0.2590    0.1737 H       1  UNL11       0.0731
     28 H           2.5447    1.0571    1.4139 H       1  UNL11       0.0731
     29 H           2.5992    1.3140    2.9855 H       1  UNL11       0.0655
     30 H           2.7164    1.5890    5.4482 H       1  UNL11       0.0647
     31 H          -0.8425   -0.7620    5.8601 H       1  UNL11       0.0647
     32 H          -0.9136   -1.0050    3.4113 H       1  UNL11       0.0655
     33 H          -0.4742   -1.2899   -0.0191 H       1  UNL11       0.0728
     34 H          -4.2588   -2.9509    0.8752 H       1  UNL11       0.4475
     35 H          -6.1727   -1.7608    0.5631 H       1  UNL11       0.0683
     36 H          -7.3228    0.3111   -0.1353 H       1  UNL11       0.0620
     37 H          -5.9858    2.2486   -0.9598 H       1  UNL11       0.0618
     38 H          -3.5459    2.1018   -1.0779 H       1  UNL11       0.0626
@<TRIPOS>BOND
     1     1     2    2
     2     2     3    1
     3     2    14    1
     4     3     4    1
     5     4     5    1
     6     4    25    1
     7     4    26    1
     8     5     6    1
     9     5    27    1
    10     5    28    1
    11     6     7    1
    12     7     8   ar
    13     8     9   ar
    14     8    29    1
    15     9    10   ar
    16     9    30    1
    17    10    11    1
    18    10    12   ar
    19    12    13   ar
    20    12    31    1
    21    13     7   ar
    22    13    32    1
    23    14    15    2
    24    15    16    1
    25    15    33    1
    26    16    17    2
    27    16    18   am
    28    18    19    1
    29    18    34    1
    30    19    20   ar
    31    20    21   ar
    32    20    35    1
    33    21    22   ar
    34    21    36    1
    35    22    23   ar
    36    22    37    1
    37    23    24   ar
    38    23    38    1
    39    24    14    1
    40    24    19   ar
@<TRIPOS>MOLECULE
*****
 38 40 0 0 0
SMALL
GASTEIGER

@<TRIPOS>ATOM
      1 O          -1.5403    2.1878   -1.2415 O.2     1  UNL11      -0.2449
      2 C          -1.2611    1.0577   -0.8470 C.2     1  UNL11       0.3404
      3 O           0.1327    0.7916   -0.8609 O.3     1  UNL11      -0.4577
      4 C           0.9052    0.8508   -2.0250 C.3     1  UNL11       0.1267
      5 C           0.8135    2.2669   -2.5498 C.3     1  UNL11       0.1236
      6 O          -0.5492    2.5499   -2.8051 O.3     1  UNL11      -0.4886
      7 C          -1.4243    1.5092   -3.1730 C.ar    1  UNL11       0.1208
      8 C          -2.7598    1.5740   -2.8351 C.ar    1  UNL11      -0.0172
      9 C          -3.6258    0.5555   -3.1930 C.ar    1  UNL11      -0.0230
     10 C          -3.1339   -0.5272   -3.8936 C.ar    1  UNL11       0.1236
     11 F          -4.0198   -1.5194   -4.2328 F       1  UNL11      -0.2055
     12 C          -1.8049   -0.6221   -4.2465 C.ar    1  UNL11      -0.0230
     13 C          -0.9712    0.4155   -3.8709 C.ar    1  UNL11      -0.0172
     14 C          -2.1204   -0.0027   -0.3868 C.2     1  UNL11       0.0820
     15 C          -1.6578   -1.3295   -0.3915 C.2     1  UNL11       0.0674
     16 C          -2.4374   -2.3662    0.0356 C.2     1  UNL11       0.4077
     17 O          -1.9554   -3.5332    0.0030 O.2     1  UNL11      -0.2148
     18 N          -3.6774   -2.1507    0.4763 N.am    1  UNL11      -0.1444
     19 C          -4.1724   -0.9010    0.5032 C.ar    1  UNL11       0.2104
     20 C          -5.4650   -0.7028    0.9660 C.ar    1  UNL11       0.0097
     21 C          -5.9618    0.5639    0.9914 C.ar    1  UNL11      -0.0555
     22 C          -5.2237    1.6482    0.5738 C.ar    1  UNL11      -0.0608
     23 C          -3.9290    1.4689    0.1078 C.ar    1  UNL11      -0.0475
     24 C          -3.4118    0.1958    0.0756 C.ar    1  UNL11       0.0599
     25 H           0.4741    0.1868   -2.8269 H       1  UNL11       0.0732
     26 H           1.9449    0.5220   -1.8883 H       1  UNL11       0.0732
     27 H           1.1119    2.9314   -1.6915 H       1  UNL11       0.0731
     28 H           1.4515    2.4257   -3.4403 H       1  UNL11       0.0731
     29 H          -3.1380    2.4281   -2.2847 H       1  UNL11       0.0655
     30 H          -4.6831    0.5978   -2.9303 H       1  UNL11       0.0647
     31 H          -1.4245   -1.4690   -4.7935 H       1  UNL11       0.0647
     32 H           0.0672    0.3733   -4.1292 H       1  UNL11       0.0655
     33 H          -0.6395   -1.4764   -0.7574 H       1  UNL11       0.0728
     34 H          -4.2741   -2.9684    0.8064 H       1  UNL11       0.4475
     35 H          -6.0111   -1.5787    1.2844 H       1  UNL11       0.0683
     36 H          -6.9874    0.6893    1.3627 H       1  UNL11       0.0620
     37 H          -5.6361    2.6430    0.6021 H       1  UNL11       0.0618
     38 H          -3.3535    2.3189   -0.2184 H       1  UNL11       0.0626
@<TRIPOS>BOND
     1     1     2    2
     2     2     3    1
     3     2    14    1
     4     3     4    1
     5     4     5    1
     6     4    25    1
     7     4    26    1
     8     5     6    1
     9     5    27    1
    10     5    28    1
    11     6     7    1
    12     7     8   ar
    13     8     9   ar
    14     8    29    1
    15     9    10   ar
    16     9    30    1
    17    10    11    1
    18    10    12   ar
    19    12    13   ar
    20    12    31    1
    21    13     7   ar
    22    13    32    1
    23    14    15    2
    24    15    16    1
    25    15    33    1
    26    16    17    2
    27    16    18   am
    28    18    19    1
    29    18    34    1
    30    19    20   ar
    31    20    21   ar
    32    20    35    1
    33    21    22   ar
    34    21    36    1
    35    22    23   ar
    36    22    37    1
    37    23    24   ar
    38    23    38    1
    39    24    14    1
    40    24    19   ar
@<TRIPOS>MOLECULE
*****
 38 40 0 0 0
SMALL
GASTEIGER

@<TRIPOS>ATOM
      1 O          -1.5403    2.1878   -1.2415 O.2     1  UNL11      -0.2449
      2 C          -1.2611    1.0577   -0.8470 C.2     1  UNL11       0.3404
      3 O           0.1327    0.7916   -0.8609 O.3     1  UNL11      -0.4577
      4 C           1.0099    1.3862   -1.7732 C.3     1  UNL11       0.1267
      5 C           0.9408    2.8809   -1.5493 C.3     1  UNL11       0.1236
      6 O           1.3483    3.1420   -0.2195 O.3     1  UNL11      -0.4886
      7 C           0.3917    3.1704    0.8140 C.ar    1  UNL11       0.1208
      8 C          -0.9392    2.9429    0.5335 C.ar    1  UNL11      -0.0172
      9 C          -1.8851    2.9691    1.5435 C.ar    1  UNL11      -0.0230
     10 C          -1.4775    3.2263    2.8369 C.ar    1  UNL11       0.1236
     11 F          -2.4411    3.2449    3.8143 F       1  UNL11      -0.2055
     12 C          -0.1553    3.4576    3.1503 C.ar    1  UNL11      -0.0230
     13 C           0.7597    3.4230    2.1138 C.ar    1  UNL11      -0.0172
     14 C          -2.1204   -0.0027   -0.3868 C.2     1  UNL11       0.0820
     15 C          -1.5629   -1.2223    0.0328 C.2     1  UNL11       0.0674
     16 C          -2.3387   -2.2548    0.4767 C.2     1  UNL11       0.4077
     17 O          -1.7685   -3.3223    0.8380 O.2     1  UNL11      -0.2148
     18 N          -3.6661   -2.1378    0.5270 N.am    1  UNL11      -0.1444
     19 C          -4.2543   -0.9933    0.1378 C.ar    1  UNL11       0.2104
     20 C          -5.6367   -0.8963    0.1996 C.ar    1  UNL11       0.0097
     21 C          -6.2276    0.2642   -0.1954 C.ar    1  UNL11      -0.0555
     22 C          -5.4981    1.3387   -0.6519 C.ar    1  UNL11      -0.0608
     23 C          -4.1144    1.2598   -0.7204 C.ar    1  UNL11      -0.0475
     24 C          -3.5016    0.0946   -0.3252 C.ar    1  UNL11       0.0599
     25 H           0.6690    1.2080   -2.8323 H       1  UNL11       0.0732
     26 H           2.0383    1.0025   -1.7191 H       1  UNL11       0.0732
     27 H           1.7360    3.3266   -2.2097 H       1  UNL11       0.0731
     28 H          -0.0628    3.2918   -1.7714 H       1  UNL11       0.0731
     29 H          -1.2510    2.7417   -0.4852 H       1  UNL11       0.0655
     30 H          -2.9396    2.7905    1.3315 H       1  UNL11       0.0647
     31 H           0.1592    3.6580    4.1613 H       1  UNL11       0.0647
     32 H           1.7953    3.5986    2.3227 H       1  UNL11       0.0655
     33 H          -0.4742   -1.2899   -0.0191 H       1  UNL11       0.0728
     34 H          -4.2588   -2.9509    0.8752 H       1  UNL11       0.4475
     35 H          -6.1727   -1.7608    0.5631 H       1  UNL11       0.0683
     36 H          -7.3228    0.3111   -0.1353 H       1  UNL11       0.0620
     37 H          -5.9858    2.2486   -0.9598 H       1  UNL11       0.0618
     38 H          -3.5459    2.1018   -1.0779 H       1  UNL11       0.0626
@<TRIPOS>BOND
     1     1     2    2
     2     2     3    1
     3     2    14    1
     4     3     4    1
     5     4     5    1
     6     4    25    1
     7     4    26    1
     8     5     6    1
     9     5    27    1
    10     5    28    1
    11     6     7    1
    12     7     8   ar
    13     8     9   ar
    14     8    29    1
    15     9    10   ar
    16     9    30    1
    17    10    11    1
    18    10    12   ar
    19    12    13   ar
    20    12    31    1
    21    13     7   ar
    22    13    32    1
    23    14    15    2
    24    15    16    1
    25    15    33    1
    26    16    17    2
    27    16    18   am
    28    18    19    1
    29    18    34    1
    30    19    20   ar
    31    20    21   ar
    32    20    35    1
    33    21    22   ar
    34    21    36    1
    35    22    23   ar
    36    22    37    1
    37    23    24   ar
    38    23    38    1
    39    24    14    1
    40    24    19   ar
@<TRIPOS>MOLECULE
*****
 38 40 0 0 0
SMALL
GASTEIGER

@<TRIPOS>ATOM
      1 O          -1.5403    2.1878   -1.2415 O.2     1  UNL11      -0.2449
      2 C          -1.2611    1.0577   -0.8470 C.2     1  UNL11       0.3404
      3 O           0.1327    0.7916   -0.8609 O.3     1  UNL11      -0.4577
      4 C           1.0802    1.7287   -1.2845 C.3     1  UNL11       0.1267
      5 C           2.0070    1.9853   -0.1164 C.3     1  UNL11       0.1236
      6 O           2.6304    0.7611    0.2228 O.3     1  UNL11      -0.4886
      7 C           2.0337   -0.0893    1.1741 C.ar    1  UNL11       0.1208
      8 C           0.6632   -0.1060    1.3265 C.ar    1  UNL11      -0.0172
      9 C           0.0695   -0.9388    2.2589 C.ar    1  UNL11      -0.0230
     10 C           0.8690   -1.7533    3.0351 C.ar    1  UNL11       0.1236
     11 F           0.2479   -2.5668    3.9500 F       1  UNL11      -0.2055
     12 C           2.2414   -1.7603    2.9074 C.ar    1  UNL11      -0.0230
     13 C           2.7970   -0.9144    1.9648 C.ar    1  UNL11      -0.0172
     14 C          -2.1204   -0.0027   -0.3868 C.2     1  UNL11       0.0820
     15 C          -3.4853    0.0087   -0.7204 C.2     1  UNL11       0.0674
     16 C          -4.3368   -0.9755   -0.3064 C.2     1  UNL11       0.4077
     17 O          -5.5515   -0.9000   -0.6442 O.2     1  UNL11      -0.2148
     18 N          -3.8956   -1.9911    0.4366 N.am    1  UNL11      -0.1444
     19 C          -2.5989   -2.0535    0.7860 C.ar    1  UNL11       0.2104
     20 C          -2.1644   -3.1200    1.5593 C.ar    1  UNL11       0.0097
     21 C          -0.8510   -3.1789    1.9105 C.ar    1  UNL11      -0.0555
     22 C           0.0542   -2.2168    1.5230 C.ar    1  UNL11      -0.0608
     23 C          -0.3624   -1.1429    0.7493 C.ar    1  UNL11      -0.0475
     24 C          -1.6859   -1.0682    0.3858 C.ar    1  UNL11       0.0599
     25 H           0.5902    2.7150   -1.5233 H       1  UNL11       0.0732
     26 H           1.6241    1.4347   -2.1930 H       1  UNL11       0.0732
     27 H           2.8246    2.6489   -0.5143 H       1  UNL11       0.0731
     28 H           1.4808    2.4433    0.7431 H       1  UNL11       0.0731
     29 H           0.0425    0.5370    0.7127 H       1  UNL11       0.0655
     30 H          -1.0131   -0.9589    2.3866 H       1  UNL11       0.0647
     31 H           2.8623   -2.3977    3.5152 H       1  UNL11       0.0647
     32 H           3.8604   -0.8951    1.8399 H       1  UNL11       0.0655
     33 H          -3.8187    0.8517   -1.3293 H       1  UNL11       0.0728
     34 H          -4.5707   -2.7515    0.7525 H       1  UNL11       0.4475
     35 H          -2.9050   -3.8535    1.8426 H       1  UNL11       0.0683
     36 H          -0.5369   -4.0345    2.5225 H       1  UNL11       0.0620
     37 H           1.0899   -2.2823    1.8119 H       1  UNL11       0.0618
     38 H           0.3477   -0.3914    0.4474 H       1  UNL11       0.0626
@<TRIPOS>BOND
     1     1     2    2
     2     2     3    1
     3     2    14    1
     4     3     4    1
     5     4     5    1
     6     4    25    1
     7     4    26    1
     8     5     6    1
     9     5    27    1
    10     5    28    1
    11     6     7    1
    12     7     8   ar
    13     8     9   ar
    14     8    29    1
    15     9    10   ar
    16     9    30    1
    17    10    11    1
    18    10    12   ar
    19    12    13   ar
    20    12    31    1
    21    13     7   ar
    22    13    32    1
    23    14    15    2
    24    15    16    1
    25    15    33    1
    26    16    17    2
    27    16    18   am
    28    18    19    1
    29    18    34    1
    30    19    20   ar
    31    20    21   ar
    32    20    35    1
    33    21    22   ar
    34    21    36    1
    35    22    23   ar
    36    22    37    1
    37    23    24   ar
    38    23    38    1
    39    24    14    1
    40    24    19   ar
@<TRIPOS>MOLECULE
*****
 38 40 0 0 0
SMALL
GASTEIGER

@<TRIPOS>ATOM
      1 O          -1.5403    2.1878   -1.2415 O.2     1  UNL11      -0.2449
      2 C          -1.2611    1.0577   -0.8470 C.2     1  UNL11       0.3404
      3 O           0.1327    0.7916   -0.8609 O.3     1  UNL11      -0.4577
      4 C           1.0099    1.3862   -1.7732 C.3     1  UNL11       0.1267
      5 C           2.0319    2.1604   -0.9698 C.3     1  UNL11       0.1236
      6 O           2.7189    1.2436   -0.1391 O.3     1  UNL11      -0.4886
      7 C           2.3827   -0.1238   -0.1761 C.ar    1  UNL11       0.1208
      8 C           2.5246   -0.9037    0.9524 C.ar    1  UNL11      -0.0172
      9 C           2.1963   -2.2479    0.9240 C.ar    1  UNL11      -0.0230
     10 C           1.7246   -2.7978   -0.2508 C.ar    1  UNL11       0.1236
     11 F           1.4084   -4.1336   -0.2443 F       1  UNL11      -0.2055
     12 C           1.5712   -2.0458   -1.3957 C.ar    1  UNL11      -0.0230
     13 C           1.9098   -0.7066   -1.3273 C.ar    1  UNL11      -0.0172
     14 C          -2.1204   -0.0027   -0.3868 C.2     1  UNL11       0.0820
     15 C          -3.4225    0.2926    0.0508 C.2     1  UNL11       0.0674
     16 C          -4.2717   -0.6804    0.4952 C.2     1  UNL11       0.4077
     17 O          -5.4281   -0.3413    0.8735 O.2     1  UNL11      -0.2148
     18 N          -3.8882   -1.9571    0.5287 N.am    1  UNL11      -0.1444
     19 C          -2.6530   -2.2978    0.1218 C.ar    1  UNL11       0.2104
     20 C          -2.2779   -3.6326    0.1662 C.ar    1  UNL11       0.0097
     21 C          -1.0266   -3.9727   -0.2466 C.ar    1  UNL11      -0.0555
     22 C          -0.1271   -3.0366   -0.7045 C.ar    1  UNL11      -0.0608
     23 C          -0.4849   -1.6969   -0.7560 C.ar    1  UNL11      -0.0475
     24 C          -1.7452   -1.3362   -0.3427 C.ar    1  UNL11       0.0599
     25 H           0.4718    2.1413   -2.4136 H       1  UNL11       0.0732
     26 H           1.4767    0.6772   -2.4712 H       1  UNL11       0.0732
     27 H           2.7901    2.5310   -1.7147 H       1  UNL11       0.0731
     28 H           1.5735    2.9884   -0.3957 H       1  UNL11       0.0731
     29 H           2.8959   -0.4638    1.8712 H       1  UNL11       0.0655
     30 H           2.3052   -2.8724    1.8110 H       1  UNL11       0.0647
     31 H           1.2025   -2.4787   -2.3110 H       1  UNL11       0.0647
     32 H           1.8027   -0.0937   -2.1990 H       1  UNL11       0.0655
     33 H          -3.7095    1.3455    0.0125 H       1  UNL11       0.0728
     34 H          -4.5606   -2.7053    0.8776 H       1  UNL11       0.4475
     35 H          -3.0119   -4.3358    0.5316 H       1  UNL11       0.0683
     36 H          -0.7586   -5.0363   -0.1999 H       1  UNL11       0.0620
     37 H           0.8589   -3.3271   -1.0268 H       1  UNL11       0.0618
     38 H           0.2206   -0.9663   -1.1146 H       1  UNL11       0.0626
@<TRIPOS>BOND
     1     1     2    2
     2     2     3    1
     3     2    14    1
     4     3     4    1
     5     4     5    1
     6     4    25    1
     7     4    26    1
     8     5     6    1
     9     5    27    1
    10     5    28    1
    11     6     7    1
    12     7     8   ar
    13     8     9   ar
    14     8    29    1
    15     9    10   ar
    16     9    30    1
    17    10    11    1
    18    10    12   ar
    19    12    13   ar
    20    12    31    1
    21    13     7   ar
    22    13    32    1
    23    14    15    2
    24    15    16    1
    25    15    33    1
    26    16    17    2
    27    16    18   am
    28    18    19    1
    29    18    34    1
    30    19    20   ar
    31    20    21   ar
    32    20    35    1
    33    21    22   ar
    34    21    36    1
    35    22    23   ar
    36    22    37    1
    37    23    24   ar
    38    23    38    1
    39    24    14    1
    40    24    19   ar
@<TRIPOS>MOLECULE
*****
 38 40 0 0 0
SMALL
GASTEIGER

@<TRIPOS>ATOM
      1 O          -1.5403    2.1878   -1.2415 O.2     1  UNL11      -0.2449
      2 C          -1.2611    1.0577   -0.8470 C.2     1  UNL11       0.3404
      3 O           0.1327    0.7916   -0.8609 O.3     1  UNL11      -0.4577
      4 C           1.0099    1.3862   -1.7732 C.3     1  UNL11       0.1267
      5 C           2.0319    2.1604   -0.9698 C.3     1  UNL11       0.1236
      6 O           2.7189    1.2436   -0.1391 O.3     1  UNL11      -0.4886
      7 C           2.0623    0.0845    0.3187 C.ar    1  UNL11       0.1208
      8 C           2.7197   -0.8056    1.1418 C.ar    1  UNL11      -0.0172
      9 C           2.0814   -1.9466    1.5957 C.ar    1  UNL11      -0.0230
     10 C           0.7763   -2.1817    1.2129 C.ar    1  UNL11       0.1236
     11 F           0.1731   -3.3225    1.6810 F       1  UNL11      -0.2055
     12 C           0.0915   -1.3121    0.3915 C.ar    1  UNL11      -0.0230
     13 C           0.7633   -0.1833   -0.0411 C.ar    1  UNL11      -0.0172
     14 C          -2.1204   -0.0027   -0.3868 C.2     1  UNL11       0.0820
     15 C          -1.5930   -1.0359    0.4061 C.2     1  UNL11       0.0674
     16 C          -2.3701   -2.0610    0.8647 C.2     1  UNL11       0.4077
     17 O          -1.8277   -2.9555    1.5726 O.2     1  UNL11      -0.2148
     18 N          -3.6698   -2.1155    0.5715 N.am    1  UNL11      -0.1444
     19 C          -4.2284   -1.1538   -0.1837 C.ar    1  UNL11       0.2104
     20 C          -5.5824   -1.2329   -0.4747 C.ar    1  UNL11       0.0097
     21 C          -6.1435   -0.2571   -1.2395 C.ar    1  UNL11      -0.0555
     22 C          -5.4112    0.8004   -1.7300 C.ar    1  UNL11      -0.0608
     23 C          -4.0557    0.8960   -1.4490 C.ar    1  UNL11      -0.0475
     24 C          -3.4732   -0.0814   -0.6778 C.ar    1  UNL11       0.0599
     25 H           0.4718    2.1413   -2.4136 H       1  UNL11       0.0732
     26 H           1.4767    0.6772   -2.4712 H       1  UNL11       0.0732
     27 H           2.7901    2.5310   -1.7147 H       1  UNL11       0.0731
     28 H           1.5735    2.9884   -0.3957 H       1  UNL11       0.0731
     29 H           3.7449   -0.6134    1.4378 H       1  UNL11       0.0655
     30 H           2.5929   -2.6561    2.2467 H       1  UNL11       0.0647
     31 H          -0.9274   -1.4990    0.0948 H       1  UNL11       0.0647
     32 H           0.2603    0.5132   -0.6805 H       1  UNL11       0.0655
     33 H          -0.5265   -0.9657    0.6303 H       1  UNL11       0.0728
     34 H          -4.2637   -2.9206    0.9358 H       1  UNL11       0.4475
     35 H          -6.1216   -2.0775   -0.0715 H       1  UNL11       0.0683
     36 H          -7.2166   -0.3468   -1.4529 H       1  UNL11       0.0620
     37 H          -5.8750    1.5625   -2.3338 H       1  UNL11       0.0618
     38 H          -3.4849    1.7243   -1.8339 H       1  UNL11       0.0626
@<TRIPOS>BOND
     1     1     2    2
     2     2     3    1
     3     2    14    1
     4     3     4    1
     5     4     5    1
     6     4    25    1
     7     4    26    1
     8     5     6    1
     9     5    27    1
    10     5    28    1
    11     6     7    1
    12     7     8   ar
    13     8     9   ar
    14     8    29    1
    15     9    10   ar
    16     9    30    1
    17    10    11    1
    18    10    12   ar
    19    12    13   ar
    20    12    31    1
    21    13     7   ar
    22    13    32    1
    23    14    15    2
    24    15    16    1
    25    15    33    1
    26    16    17    2
    27    16    18   am
    28    18    19    1
    29    18    34    1
    30    19    20   ar
    31    20    21   ar
    32    20    35    1
    33    21    22   ar
    34    21    36    1
    35    22    23   ar
    36    22    37    1
    37    23    24   ar
    38    23    38    1
    39    24    14    1
    40    24    19   ar
@<TRIPOS>MOLECULE
*****
 38 40 0 0 0
SMALL
GASTEIGER

@<TRIPOS>ATOM
      1 O          -1.5403    2.1878   -1.2415 O.2     1  UNL11      -0.2449
      2 C          -1.2611    1.0577   -0.8470 C.2     1  UNL11       0.3404
      3 O           0.1327    0.7916   -0.8609 O.3     1  UNL11      -0.4577
      4 C           1.0802    1.7287   -1.2845 C.3     1  UNL11       0.1267
      5 C           2.0070    1.9853   -0.1164 C.3     1  UNL11       0.1236
      6 O           2.6304    0.7611    0.2228 O.3     1  UNL11      -0.4886
      7 C           3.4319    0.0962   -0.7258 C.ar    1  UNL11       0.1208
      8 C           3.6115    0.6359   -1.9821 C.ar    1  UNL11      -0.0172
      9 C           4.3975   -0.0113   -2.9195 C.ar    1  UNL11      -0.0230
     10 C           4.9998   -1.2057   -2.5793 C.ar    1  UNL11       0.1236
     11 F           5.7726   -1.8211   -3.5324 F       1  UNL11      -0.2055
     12 C           4.8403   -1.7714   -1.3325 C.ar    1  UNL11      -0.0230
     13 C           4.0476   -1.0946   -0.4235 C.ar    1  UNL11      -0.0172
     14 C          -2.1204   -0.0027   -0.3868 C.2     1  UNL11       0.0820
     15 C          -3.5113    0.1924   -0.3455 C.2     1  UNL11       0.0674
     16 C          -4.3639   -0.7845    0.0833 C.2     1  UNL11       0.4077
     17 O          -5.6027   -0.5383    0.0935 O.2     1  UNL11      -0.2148
     18 N          -3.8988   -1.9691    0.4814 N.am    1  UNL11      -0.1444
     19 C          -2.5765   -2.2117    0.4631 C.ar    1  UNL11       0.2104
     20 C          -2.1175   -3.4518    0.8821 C.ar    1  UNL11       0.0097
     21 C          -0.7784   -3.6928    0.8619 C.ar    1  UNL11      -0.0555
     22 C           0.1292   -2.7475    0.4402 C.ar    1  UNL11      -0.0608
     23 C          -0.3117   -1.5015    0.0176 C.ar    1  UNL11      -0.0475
     24 C          -1.6614   -1.2417    0.0317 C.ar    1  UNL11       0.0599
     25 H           0.5902    2.7150   -1.5233 H       1  UNL11       0.0732
     26 H           1.6241    1.4347   -2.1930 H       1  UNL11       0.0732
     27 H           2.8246    2.6489   -0.5143 H       1  UNL11       0.0731
     28 H           1.4808    2.4433    0.7431 H       1  UNL11       0.0731
     29 H           3.1348    1.5746   -2.2412 H       1  UNL11       0.0655
     30 H           4.5454    0.4076   -3.9152 H       1  UNL11       0.0647
     31 H           5.3122   -2.7041   -1.0705 H       1  UNL11       0.0647
     32 H           3.9027   -1.5066    0.5543 H       1  UNL11       0.0655
     33 H          -3.8639    1.1714   -0.6770 H       1  UNL11       0.0728
     34 H          -4.5750   -2.7216    0.8133 H       1  UNL11       0.4475
     35 H          -2.8609   -4.1658    1.2053 H       1  UNL11       0.0683
     36 H          -0.4453   -4.6831    1.1992 H       1  UNL11       0.0620
     37 H           1.1855   -2.9587    0.4321 H       1  UNL11       0.0618
     38 H           0.4003   -0.7636   -0.3119 H       1  UNL11       0.0626
@<TRIPOS>BOND
     1     1     2    2
     2     2     3    1
     3     2    14    1
     4     3     4    1
     5     4     5    1
     6     4    25    1
     7     4    26    1
     8     5     6    1
     9     5    27    1
    10     5    28    1
    11     6     7    1
    12     7     8   ar
    13     8     9   ar
    14     8    29    1
    15     9    10   ar
    16     9    30    1
    17    10    11    1
    18    10    12   ar
    19    12    13   ar
    20    12    31    1
    21    13     7   ar
    22    13    32    1
    23    14    15    2
    24    15    16    1
    25    15    33    1
    26    16    17    2
    27    16    18   am
    28    18    19    1
    29    18    34    1
    30    19    20   ar
    31    20    21   ar
    32    20    35    1
    33    21    22   ar
    34    21    36    1
    35    22    23   ar
    36    22    37    1
    37    23    24   ar
    38    23    38    1
    39    24    14    1
    40    24    19   ar
@<TRIPOS>MOLECULE
*****
 38 40 0 0 0
SMALL
GASTEIGER

@<TRIPOS>ATOM
      1 O          -1.5403    2.1878   -1.2415 O.2     1  UNL11      -0.2449
      2 C          -1.2611    1.0577   -0.8470 C.2     1  UNL11       0.3404
      3 O           0.1327    0.7916   -0.8609 O.3     1  UNL11      -0.4577
      4 C           1.0802    1.7287   -1.2845 C.3     1  UNL11       0.1267
      5 C           0.9615    2.9279   -0.3696 C.3     1  UNL11       0.1236
      6 O          -0.3585    3.4271   -0.4740 O.3     1  UNL11      -0.4886
      7 C          -1.0724    3.2744   -1.6787 C.ar    1  UNL11       0.1208
      8 C          -0.8227    2.1957   -2.5008 C.ar    1  UNL11      -0.0172
      9 C          -1.5199    2.0387   -3.6860 C.ar    1  UNL11      -0.0230
     10 C          -2.4698    2.9776   -4.0342 C.ar    1  UNL11       0.1236
     11 F          -3.1429    2.7917   -5.2160 F       1  UNL11      -0.2055
     12 C          -2.7430    4.0667   -3.2347 C.ar    1  UNL11      -0.0230
     13 C          -2.0255    4.1886   -2.0586 C.ar    1  UNL11      -0.0172
     14 C          -2.1204   -0.0027   -0.3868 C.2     1  UNL11       0.0820
     15 C          -1.6578   -1.3295   -0.3915 C.2     1  UNL11       0.0674
     16 C          -2.4374   -2.3662    0.0356 C.2     1  UNL11       0.4077
     17 O          -1.9554   -3.5332    0.0030 O.2     1  UNL11      -0.2148
     18 N          -3.6774   -2.1507    0.4763 N.am    1  UNL11      -0.1444
     19 C          -4.1724   -0.9010    0.5032 C.ar    1  UNL11       0.2104
     20 C          -5.4650   -0.7028    0.9660 C.ar    1  UNL11       0.0097
     21 C          -5.9618    0.5639    0.9914 C.ar    1  UNL11      -0.0555
     22 C          -5.2237    1.6482    0.5738 C.ar    1  UNL11      -0.0608
     23 C          -3.9290    1.4689    0.1078 C.ar    1  UNL11      -0.0475
     24 C          -3.4118    0.1958    0.0756 C.ar    1  UNL11       0.0599
     25 H           0.8438    2.0972   -2.3228 H       1  UNL11       0.0732
     26 H           2.1061    1.3374   -1.3299 H       1  UNL11       0.0732
     27 H           1.0580    2.5253    0.6772 H       1  UNL11       0.0731
     28 H           1.7233    3.7002   -0.5902 H       1  UNL11       0.0731
     29 H          -0.0749    1.4627   -2.2199 H       1  UNL11       0.0655
     30 H          -1.3295    1.1892   -4.3424 H       1  UNL11       0.0647
     31 H          -3.4854    4.7977   -3.5098 H       1  UNL11       0.0647
     32 H          -2.2131    5.0232   -1.4143 H       1  UNL11       0.0655
     33 H          -0.6395   -1.4764   -0.7574 H       1  UNL11       0.0728
     34 H          -4.2741   -2.9684    0.8064 H       1  UNL11       0.4475
     35 H          -6.0111   -1.5787    1.2844 H       1  UNL11       0.0683
     36 H          -6.9874    0.6893    1.3627 H       1  UNL11       0.0620
     37 H          -5.6361    2.6430    0.6021 H       1  UNL11       0.0618
     38 H          -3.3535    2.3189   -0.2184 H       1  UNL11       0.0626
@<TRIPOS>BOND
     1     1     2    2
     2     2     3    1
     3     2    14    1
     4     3     4    1
     5     4     5    1
     6     4    25    1
     7     4    26    1
     8     5     6    1
     9     5    27    1
    10     5    28    1
    11     6     7    1
    12     7     8   ar
    13     8     9   ar
    14     8    29    1
    15     9    10   ar
    16     9    30    1
    17    10    11    1
    18    10    12   ar
    19    12    13   ar
    20    12    31    1
    21    13     7   ar
    22    13    32    1
    23    14    15    2
    24    15    16    1
    25    15    33    1
    26    16    17    2
    27    16    18   am
    28    18    19    1
    29    18    34    1
    30    19    20   ar
    31    20    21   ar
    32    20    35    1
    33    21    22   ar
    34    21    36    1
    35    22    23   ar
    36    22    37    1
    37    23    24   ar
    38    23    38    1
    39    24    14    1
    40    24    19   ar
@<TRIPOS>MOLECULE
*****
 38 40 0 0 0
SMALL
GASTEIGER

@<TRIPOS>ATOM
      1 O          -1.5403    2.1878   -1.2415 O.2     1  UNL11      -0.2449
      2 C          -1.2611    1.0577   -0.8470 C.2     1  UNL11       0.3404
      3 O           0.1327    0.7916   -0.8609 O.3     1  UNL11      -0.4577
      4 C           1.0976    1.7886   -0.6868 C.3     1  UNL11       0.1267
      5 C           0.8703    2.3955    0.6804 C.3     1  UNL11       0.1236
      6 O          -0.4434    2.9206    0.7115 O.3     1  UNL11      -0.4886
      7 C          -1.2681    2.8137   -0.4255 C.ar    1  UNL11       0.1208
      8 C          -2.6365    2.7182   -0.2832 C.ar    1  UNL11      -0.0172
      9 C          -3.4533    2.6129   -1.3954 C.ar    1  UNL11      -0.0230
     10 C          -2.8790    2.6048   -2.6504 C.ar    1  UNL11       0.1236
     11 F          -3.7179    2.4991   -3.7318 F       1  UNL11      -0.2055
     12 C          -1.5151    2.6986   -2.8266 C.ar    1  UNL11      -0.0230
     13 C          -0.7325    2.8023   -1.6910 C.ar    1  UNL11      -0.0172
     14 C          -2.1204   -0.0027   -0.3868 C.2     1  UNL11       0.0820
     15 C          -3.4225    0.2926    0.0508 C.2     1  UNL11       0.0674
     16 C          -4.2717   -0.6804    0.4952 C.2     1  UNL11       0.4077
     17 O          -5.4281   -0.3413    0.8735 O.2     1  UNL11      -0.2148
     18 N          -3.8882   -1.9571    0.5287 N.am    1  UNL11      -0.1444
     19 C          -2.6530   -2.2978    0.1218 C.ar    1  UNL11       0.2104
     20 C          -2.2779   -3.6326    0.1662 C.ar    1  UNL11       0.0097
     21 C          -1.0266   -3.9727   -0.2466 C.ar    1  UNL11      -0.0555
     22 C          -0.1271   -3.0366   -0.7045 C.ar    1  UNL11      -0.0608
     23 C          -0.4849   -1.6969   -0.7560 C.ar    1  UNL11      -0.0475
     24 C          -1.7452   -1.3362   -0.3427 C.ar    1  UNL11       0.0599
     25 H           0.9528    2.6217   -1.4317 H       1  UNL11       0.0732
     26 H           2.1306    1.4391   -0.8226 H       1  UNL11       0.0732
     27 H           0.8757    1.5326    1.4032 H       1  UNL11       0.0731
     28 H           1.6345    3.1553    0.9337 H       1  UNL11       0.0731
     29 H          -3.0796    2.7253    0.7063 H       1  UNL11       0.0655
     30 H          -4.5362    2.5369   -1.2929 H       1  UNL11       0.0647
     31 H          -1.0703    2.6920   -3.8081 H       1  UNL11       0.0647
     32 H           0.3309    2.8769   -1.7924 H       1  UNL11       0.0655
     33 H          -3.7095    1.3455    0.0125 H       1  UNL11       0.0728
     34 H          -4.5606   -2.7053    0.8776 H       1  UNL11       0.4475
     35 H          -3.0119   -4.3358    0.5316 H       1  UNL11       0.0683
     36 H          -0.7586   -5.0363   -0.1999 H       1  UNL11       0.0620
     37 H           0.8589   -3.3271   -1.0268 H       1  UNL11       0.0618
     38 H           0.2206   -0.9663   -1.1146 H       1  UNL11       0.0626
@<TRIPOS>BOND
     1     1     2    2
     2     2     3    1
     3     2    14    1
     4     3     4    1
     5     4     5    1
     6     4    25    1
     7     4    26    1
     8     5     6    1
     9     5    27    1
    10     5    28    1
    11     6     7    1
    12     7     8   ar
    13     8     9   ar
    14     8    29    1
    15     9    10   ar
    16     9    30    1
    17    10    11    1
    18    10    12   ar
    19    12    13   ar
    20    12    31    1
    21    13     7   ar
    22    13    32    1
    23    14    15    2
    24    15    16    1
    25    15    33    1
    26    16    17    2
    27    16    18   am
    28    18    19    1
    29    18    34    1
    30    19    20   ar
    31    20    21   ar
    32    20    35    1
    33    21    22   ar
    34    21    36    1
    35    22    23   ar
    36    22    37    1
    37    23    24   ar
    38    23    38    1
    39    24    14    1
    40    24    19   ar
@<TRIPOS>MOLECULE
*****
 38 40 0 0 0
SMALL
GASTEIGER

@<TRIPOS>ATOM
      1 O          -1.5403    2.1878   -1.2415 O.2     1  UNL11      -0.2449
      2 C          -1.2611    1.0577   -0.8470 C.2     1  UNL11       0.3404
      3 O           0.1327    0.7916   -0.8609 O.3     1  UNL11      -0.4577
      4 C           0.9052    0.8508   -2.0250 C.3     1  UNL11       0.1267
      5 C           0.8135    2.2669   -2.5498 C.3     1  UNL11       0.1236
      6 O          -0.5492    2.5499   -2.8051 O.3     1  UNL11      -0.4886
      7 C          -1.1837    3.6100   -2.1284 C.ar    1  UNL11       0.1208
      8 C          -0.4802    4.3726   -1.2199 C.ar    1  UNL11      -0.0172
      9 C          -1.0964    5.4158   -0.5511 C.ar    1  UNL11      -0.0230
     10 C          -2.4264    5.6827   -0.8060 C.ar    1  UNL11       0.1236
     11 F          -3.0067    6.7241   -0.1256 F       1  UNL11      -0.2055
     12 C          -3.1574    4.9395   -1.7079 C.ar    1  UNL11      -0.0230
     13 C          -2.5063    3.9057   -2.3561 C.ar    1  UNL11      -0.0172
     14 C          -2.1204   -0.0027   -0.3868 C.2     1  UNL11       0.0820
     15 C          -1.6578   -1.3295   -0.3915 C.2     1  UNL11       0.0674
     16 C          -2.4374   -2.3662    0.0356 C.2     1  UNL11       0.4077
     17 O          -1.9554   -3.5332    0.0030 O.2     1  UNL11      -0.2148
     18 N          -3.6774   -2.1507    0.4763 N.am    1  UNL11      -0.1444
     19 C          -4.1724   -0.9010    0.5032 C.ar    1  UNL11       0.2104
     20 C          -5.4650   -0.7028    0.9660 C.ar    1  UNL11       0.0097
     21 C          -5.9618    0.5639    0.9914 C.ar    1  UNL11      -0.0555
     22 C          -5.2237    1.6482    0.5738 C.ar    1  UNL11      -0.0608
     23 C          -3.9290    1.4689    0.1078 C.ar    1  UNL11      -0.0475
     24 C          -3.4118    0.1958    0.0756 C.ar    1  UNL11       0.0599
     25 H           0.4741    0.1868   -2.8269 H       1  UNL11       0.0732
     26 H           1.9449    0.5220   -1.8883 H       1  UNL11       0.0732
     27 H           1.1119    2.9314   -1.6915 H       1  UNL11       0.0731
     28 H           1.4515    2.4257   -3.4403 H       1  UNL11       0.0731
     29 H           0.5643    4.1563   -1.0255 H       1  UNL11       0.0655
     30 H          -0.5485    6.0242    0.1689 H       1  UNL11       0.0647
     31 H          -4.1956    5.1509   -1.9044 H       1  UNL11       0.0647
     32 H          -3.0451    3.3085   -3.0631 H       1  UNL11       0.0655
     33 H          -0.6395   -1.4764   -0.7574 H       1  UNL11       0.0728
     34 H          -4.2741   -2.9684    0.8064 H       1  UNL11       0.4475
     35 H          -6.0111   -1.5787    1.2844 H       1  UNL11       0.0683
     36 H          -6.9874    0.6893    1.3627 H       1  UNL11       0.0620
     37 H          -5.6361    2.6430    0.6021 H       1  UNL11       0.0618
     38 H          -3.3535    2.3189   -0.2184 H       1  UNL11       0.0626
@<TRIPOS>BOND
     1     1     2    2
     2     2     3    1
     3     2    14    1
     4     3     4    1
     5     4     5    1
     6     4    25    1
     7     4    26    1
     8     5     6    1
     9     5    27    1
    10     5    28    1
    11     6     7    1
    12     7     8   ar
    13     8     9   ar
    14     8    29    1
    15     9    10   ar
    16     9    30    1
    17    10    11    1
    18    10    12   ar
    19    12    13   ar
    20    12    31    1
    21    13     7   ar
    22    13    32    1
    23    14    15    2
    24    15    16    1
    25    15    33    1
    26    16    17    2
    27    16    18   am
    28    18    19    1
    29    18    34    1
    30    19    20   ar
    31    20    21   ar
    32    20    35    1
    33    21    22   ar
    34    21    36    1
    35    22    23   ar
    36    22    37    1
    37    23    24   ar
    38    23    38    1
    39    24    14    1
    40    24    19   ar
@<TRIPOS>MOLECULE
*****
 38 40 0 0 0
SMALL
GASTEIGER

@<TRIPOS>ATOM
      1 O          -1.5403    2.1878   -1.2415 O.2     1  UNL11      -0.2449
      2 C          -1.2611    1.0577   -0.8470 C.2     1  UNL11       0.3404
      3 O           0.1327    0.7916   -0.8609 O.3     1  UNL11      -0.4577
      4 C           1.0976    1.7886   -0.6868 C.3     1  UNL11       0.1267
      5 C           1.9053    1.4188    0.5379 C.3     1  UNL11       0.1236
      6 O           1.0190    1.3434    1.6385 O.3     1  UNL11      -0.4886
      7 C           0.2668    2.4745    2.0114 C.ar    1  UNL11       0.1208
      8 C          -0.9739    2.3212    2.5935 C.ar    1  UNL11      -0.0172
      9 C          -1.7189    3.4275    2.9627 C.ar    1  UNL11      -0.0230
     10 C          -1.2025    4.6879    2.7399 C.ar    1  UNL11       0.1236
     11 F          -1.9674    5.7633    3.1179 F       1  UNL11      -0.2055
     12 C           0.0340    4.8752    2.1603 C.ar    1  UNL11      -0.0230
     13 C           0.7480    3.7452    1.8054 C.ar    1  UNL11      -0.0172
     14 C          -2.1204   -0.0027   -0.3868 C.2     1  UNL11       0.0820
     15 C          -3.4225    0.2926    0.0508 C.2     1  UNL11       0.0674
     16 C          -4.2717   -0.6804    0.4952 C.2     1  UNL11       0.4077
     17 O          -5.4281   -0.3413    0.8735 O.2     1  UNL11      -0.2148
     18 N          -3.8882   -1.9571    0.5287 N.am    1  UNL11      -0.1444
     19 C          -2.6530   -2.2978    0.1218 C.ar    1  UNL11       0.2104
     20 C          -2.2779   -3.6326    0.1662 C.ar    1  UNL11       0.0097
     21 C          -1.0266   -3.9727   -0.2466 C.ar    1  UNL11      -0.0555
     22 C          -0.1271   -3.0366   -0.7045 C.ar    1  UNL11      -0.0608
     23 C          -0.4849   -1.6969   -0.7560 C.ar    1  UNL11      -0.0475
     24 C          -1.7452   -1.3362   -0.3427 C.ar    1  UNL11       0.0599
     25 H           0.6133    2.7805   -0.4598 H       1  UNL11       0.0732
     26 H           1.7301    1.9572   -1.5696 H       1  UNL11       0.0732
     27 H           2.2675    0.3679    0.3600 H       1  UNL11       0.0731
     28 H           2.7411    2.1222    0.7166 H       1  UNL11       0.0731
     29 H          -1.3723    1.3275    2.7651 H       1  UNL11       0.0655
     30 H          -2.7008    3.3163    3.4236 H       1  UNL11       0.0647
     31 H           0.4339    5.8609    1.9879 H       1  UNL11       0.0647
     32 H           1.7123    3.8551    1.3528 H       1  UNL11       0.0655
     33 H          -3.7095    1.3455    0.0125 H       1  UNL11       0.0728
     34 H          -4.5606   -2.7053    0.8776 H       1  UNL11       0.4475
     35 H          -3.0119   -4.3358    0.5316 H       1  UNL11       0.0683
     36 H          -0.7586   -5.0363   -0.1999 H       1  UNL11       0.0620
     37 H           0.8589   -3.3271   -1.0268 H       1  UNL11       0.0618
     38 H           0.2206   -0.9663   -1.1146 H       1  UNL11       0.0626
@<TRIPOS>BOND
     1     1     2    2
     2     2     3    1
     3     2    14    1
     4     3     4    1
     5     4     5    1
     6     4    25    1
     7     4    26    1
     8     5     6    1
     9     5    27    1
    10     5    28    1
    11     6     7    1
    12     7     8   ar
    13     8     9   ar
    14     8    29    1
    15     9    10   ar
    16     9    30    1
    17    10    11    1
    18    10    12   ar
    19    12    13   ar
    20    12    31    1
    21    13     7   ar
    22    13    32    1
    23    14    15    2
    24    15    16    1
    25    15    33    1
    26    16    17    2
    27    16    18   am
    28    18    19    1
    29    18    34    1
    30    19    20   ar
    31    20    21   ar
    32    20    35    1
    33    21    22   ar
    34    21    36    1
    35    22    23   ar
    36    22    37    1
    37    23    24   ar
    38    23    38    1
    39    24    14    1
    40    24    19   ar
@<TRIPOS>MOLECULE
*****
 38 40 0 0 0
SMALL
GASTEIGER

@<TRIPOS>ATOM
      1 O          -1.5403    2.1878   -1.2415 O.2     1  UNL11      -0.2449
      2 C          -1.2611    1.0577   -0.8470 C.2     1  UNL11       0.3404
      3 O           0.1327    0.7916   -0.8609 O.3     1  UNL11      -0.4577
      4 C           1.0976    1.7886   -0.6868 C.3     1  UNL11       0.1267
      5 C           0.8703    2.3955    0.6804 C.3     1  UNL11       0.1236
      6 O          -0.4434    2.9206    0.7115 O.3     1  UNL11      -0.4886
      7 C          -0.8223    3.9164   -0.2099 C.ar    1  UNL11       0.1208
      8 C          -2.1307    4.0047   -0.6367 C.ar    1  UNL11      -0.0172
      9 C          -2.5107    4.9804   -1.5417 C.ar    1  UNL11      -0.0230
     10 C          -1.5610    5.8647   -2.0119 C.ar    1  UNL11       0.1236
     11 F          -1.9716    6.8198   -2.9083 F       1  UNL11      -0.2055
     12 C          -0.2454    5.8032   -1.6052 C.ar    1  UNL11      -0.0230
     13 C           0.0951    4.8146   -0.7001 C.ar    1  UNL11      -0.0172
     14 C          -2.1204   -0.0027   -0.3868 C.2     1  UNL11       0.0820
     15 C          -3.4225    0.2926    0.0508 C.2     1  UNL11       0.0674
     16 C          -4.2717   -0.6804    0.4952 C.2     1  UNL11       0.4077
     17 O          -5.4281   -0.3413    0.8735 O.2     1  UNL11      -0.2148
     18 N          -3.8882   -1.9571    0.5287 N.am    1  UNL11      -0.1444
     19 C          -2.6530   -2.2978    0.1218 C.ar    1  UNL11       0.2104
     20 C          -2.2779   -3.6326    0.1662 C.ar    1  UNL11       0.0097
     21 C          -1.0266   -3.9727   -0.2466 C.ar    1  UNL11      -0.0555
     22 C          -0.1271   -3.0366   -0.7045 C.ar    1  UNL11      -0.0608
     23 C          -0.4849   -1.6969   -0.7560 C.ar    1  UNL11      -0.0475
     24 C          -1.7452   -1.3362   -0.3427 C.ar    1  UNL11       0.0599
     25 H           0.9528    2.6217   -1.4317 H       1  UNL11       0.0732
     26 H           2.1306    1.4391   -0.8226 H       1  UNL11       0.0732
     27 H           0.8757    1.5326    1.4032 H       1  UNL11       0.0731
     28 H           1.6345    3.1553    0.9337 H       1  UNL11       0.0731
     29 H          -2.8704    3.3061   -0.2624 H       1  UNL11       0.0655
     30 H          -3.5426    5.0580   -1.8849 H       1  UNL11       0.0647
     31 H           0.4932    6.4955   -1.9745 H       1  UNL11       0.0647
     32 H           1.1089    4.7388   -0.3634 H       1  UNL11       0.0655
     33 H          -3.7095    1.3455    0.0125 H       1  UNL11       0.0728
     34 H          -4.5606   -2.7053    0.8776 H       1  UNL11       0.4475
     35 H          -3.0119   -4.3358    0.5316 H       1  UNL11       0.0683
     36 H          -0.7586   -5.0363   -0.1999 H       1  UNL11       0.0620
     37 H           0.8589   -3.3271   -1.0268 H       1  UNL11       0.0618
     38 H           0.2206   -0.9663   -1.1146 H       1  UNL11       0.0626
@<TRIPOS>BOND
     1     1     2    2
     2     2     3    1
     3     2    14    1
     4     3     4    1
     5     4     5    1
     6     4    25    1
     7     4    26    1
     8     5     6    1
     9     5    27    1
    10     5    28    1
    11     6     7    1
    12     7     8   ar
    13     8     9   ar
    14     8    29    1
    15     9    10   ar
    16     9    30    1
    17    10    11    1
    18    10    12   ar
    19    12    13   ar
    20    12    31    1
    21    13     7   ar
    22    13    32    1
    23    14    15    2
    24    15    16    1
    25    15    33    1
    26    16    17    2
    27    16    18   am
    28    18    19    1
    29    18    34    1
    30    19    20   ar
    31    20    21   ar
    32    20    35    1
    33    21    22   ar
    34    21    36    1
    35    22    23   ar
    36    22    37    1
    37    23    24   ar
    38    23    38    1
    39    24    14    1
    40    24    19   ar
@<TRIPOS>MOLECULE
*****
 38 40 0 0 0
SMALL
GASTEIGER

@<TRIPOS>ATOM
      1 O          -1.5403    2.1878   -1.2415 O.2     1  UNL11      -0.2449
      2 C          -1.2611    1.0577   -0.8470 C.2     1  UNL11       0.3404
      3 O           0.1327    0.7916   -0.8609 O.3     1  UNL11      -0.4577
      4 C           1.0543    1.5322   -0.1142 C.3     1  UNL11       0.1267
      5 C           0.6811    1.3698    1.3430 C.3     1  UNL11       0.1236
      6 O           0.7662   -0.0057    1.6643 O.3     1  UNL11      -0.4886
      7 C           1.1474   -0.9341    0.6759 C.ar    1  UNL11       0.1208
      8 C           1.4391   -0.5059   -0.6021 C.ar    1  UNL11      -0.0172
      9 C           1.8144   -1.4119   -1.5787 C.ar    1  UNL11      -0.0230
     10 C           1.8927   -2.7515   -1.2555 C.ar    1  UNL11       0.1236
     11 F           2.2680   -3.6230   -2.2475 F       1  UNL11      -0.2055
     12 C           1.6078   -3.2116    0.0122 C.ar    1  UNL11      -0.0230
     13 C           1.2365   -2.2757    0.9603 C.ar    1  UNL11      -0.0172
     14 C          -2.1204   -0.0027   -0.3868 C.2     1  UNL11       0.0820
     15 C          -3.5113    0.1924   -0.3455 C.2     1  UNL11       0.0674
     16 C          -4.3639   -0.7845    0.0833 C.2     1  UNL11       0.4077
     17 O          -5.6027   -0.5383    0.0935 O.2     1  UNL11      -0.2148
     18 N          -3.8988   -1.9691    0.4814 N.am    1  UNL11      -0.1444
     19 C          -2.5765   -2.2117    0.4631 C.ar    1  UNL11       0.2104
     20 C          -2.1175   -3.4518    0.8821 C.ar    1  UNL11       0.0097
     21 C          -0.7784   -3.6928    0.8619 C.ar    1  UNL11      -0.0555
     22 C           0.1292   -2.7475    0.4402 C.ar    1  UNL11      -0.0608
     23 C          -0.3117   -1.5015    0.0176 C.ar    1  UNL11      -0.0475
     24 C          -1.6614   -1.2417    0.0317 C.ar    1  UNL11       0.0599
     25 H           0.9656    2.6318   -0.3438 H       1  UNL11       0.0732
     26 H           2.1029    1.2673   -0.3093 H       1  UNL11       0.0732
     27 H           1.5002    1.8751    1.9270 H       1  UNL11       0.0731
     28 H          -0.3152    1.7954    1.5701 H       1  UNL11       0.0731
     29 H           1.3751    0.5482   -0.8477 H       1  UNL11       0.0655
     30 H           2.0469   -1.0829   -2.5918 H       1  UNL11       0.0647
     31 H           1.6701   -4.2583    0.2608 H       1  UNL11       0.0647
     32 H           1.0083   -2.5995    1.9552 H       1  UNL11       0.0655
     33 H          -3.8639    1.1714   -0.6770 H       1  UNL11       0.0728
     34 H          -4.5750   -2.7216    0.8133 H       1  UNL11       0.4475
     35 H          -2.8609   -4.1658    1.2053 H       1  UNL11       0.0683
     36 H          -0.4453   -4.6831    1.1992 H       1  UNL11       0.0620
     37 H           1.1855   -2.9587    0.4321 H       1  UNL11       0.0618
     38 H           0.4003   -0.7636   -0.3119 H       1  UNL11       0.0626
@<TRIPOS>BOND
     1     1     2    2
     2     2     3    1
     3     2    14    1
     4     3     4    1
     5     4     5    1
     6     4    25    1
     7     4    26    1
     8     5     6    1
     9     5    27    1
    10     5    28    1
    11     6     7    1
    12     7     8   ar
    13     8     9   ar
    14     8    29    1
    15     9    10   ar
    16     9    30    1
    17    10    11    1
    18    10    12   ar
    19    12    13   ar
    20    12    31    1
    21    13     7   ar
    22    13    32    1
    23    14    15    2
    24    15    16    1
    25    15    33    1
    26    16    17    2
    27    16    18   am
    28    18    19    1
    29    18    34    1
    30    19    20   ar
    31    20    21   ar
    32    20    35    1
    33    21    22   ar
    34    21    36    1
    35    22    23   ar
    36    22    37    1
    37    23    24   ar
    38    23    38    1
    39    24    14    1
    40    24    19   ar
@<TRIPOS>MOLECULE
*****
 38 40 0 0 0
SMALL
GASTEIGER

@<TRIPOS>ATOM
      1 O          -1.5403    2.1878   -1.2415 O.2     1  UNL11      -0.2449
      2 C          -1.2611    1.0577   -0.8470 C.2     1  UNL11       0.3404
      3 O           0.1327    0.7916   -0.8609 O.3     1  UNL11      -0.4577
      4 C           1.0802    1.7287   -1.2845 C.3     1  UNL11       0.1267
      5 C           2.0070    1.9853   -0.1164 C.3     1  UNL11       0.1236
      6 O           2.6304    0.7611    0.2228 O.3     1  UNL11      -0.4886
      7 C           2.3256   -0.4059   -0.5049 C.ar    1  UNL11       0.1208
      8 C           1.0826   -0.5582   -1.0824 C.ar    1  UNL11      -0.0172
      9 C           0.7755   -1.7018   -1.7989 C.ar    1  UNL11      -0.0230
     10 C           1.7316   -2.6889   -1.9275 C.ar    1  UNL11       0.1236
     11 F           1.3942   -3.8099   -2.6444 F       1  UNL11      -0.2055
     12 C           2.9830   -2.5674   -1.3625 C.ar    1  UNL11      -0.0230
     13 C           3.2517   -1.4101   -0.6545 C.ar    1  UNL11      -0.0172
     14 C          -2.1204   -0.0027   -0.3868 C.2     1  UNL11       0.0820
     15 C          -3.4853    0.0087   -0.7204 C.2     1  UNL11       0.0674
     16 C          -4.3368   -0.9755   -0.3064 C.2     1  UNL11       0.4077
     17 O          -5.5515   -0.9000   -0.6442 O.2     1  UNL11      -0.2148
     18 N          -3.8956   -1.9911    0.4366 N.am    1  UNL11      -0.1444
     19 C          -2.5989   -2.0535    0.7860 C.ar    1  UNL11       0.2104
     20 C          -2.1644   -3.1200    1.5593 C.ar    1  UNL11       0.0097
     21 C          -0.8510   -3.1789    1.9105 C.ar    1  UNL11      -0.0555
     22 C           0.0542   -2.2168    1.5230 C.ar    1  UNL11      -0.0608
     23 C          -0.3624   -1.1429    0.7493 C.ar    1  UNL11      -0.0475
     24 C          -1.6859   -1.0682    0.3858 C.ar    1  UNL11       0.0599
     25 H           0.5902    2.7150   -1.5233 H       1  UNL11       0.0732
     26 H           1.6241    1.4347   -2.1930 H       1  UNL11       0.0732
     27 H           2.8246    2.6489   -0.5143 H       1  UNL11       0.0731
     28 H           1.4808    2.4433    0.7431 H       1  UNL11       0.0731
     29 H           0.3372    0.2220   -0.9765 H       1  UNL11       0.0655
     30 H          -0.2044   -1.8312   -2.2590 H       1  UNL11       0.0647
     31 H           3.7269   -3.3402   -1.4652 H       1  UNL11       0.0647
     32 H           4.2144   -1.2837   -0.2028 H       1  UNL11       0.0655
     33 H          -3.8187    0.8517   -1.3293 H       1  UNL11       0.0728
     34 H          -4.5707   -2.7515    0.7525 H       1  UNL11       0.4475
     35 H          -2.9050   -3.8535    1.8426 H       1  UNL11       0.0683
     36 H          -0.5369   -4.0345    2.5225 H       1  UNL11       0.0620
     37 H           1.0899   -2.2823    1.8119 H       1  UNL11       0.0618
     38 H           0.3477   -0.3914    0.4474 H       1  UNL11       0.0626
@<TRIPOS>BOND
     1     1     2    2
     2     2     3    1
     3     2    14    1
     4     3     4    1
     5     4     5    1
     6     4    25    1
     7     4    26    1
     8     5     6    1
     9     5    27    1
    10     5    28    1
    11     6     7    1
    12     7     8   ar
    13     8     9   ar
    14     8    29    1
    15     9    10   ar
    16     9    30    1
    17    10    11    1
    18    10    12   ar
    19    12    13   ar
    20    12    31    1
    21    13     7   ar
    22    13    32    1
    23    14    15    2
    24    15    16    1
    25    15    33    1
    26    16    17    2
    27    16    18   am
    28    18    19    1
    29    18    34    1
    30    19    20   ar
    31    20    21   ar
    32    20    35    1
    33    21    22   ar
    34    21    36    1
    35    22    23   ar
    36    22    37    1
    37    23    24   ar
    38    23    38    1
    39    24    14    1
    40    24    19   ar
@<TRIPOS>MOLECULE
*****
 38 40 0 0 0
SMALL
GASTEIGER

@<TRIPOS>ATOM
      1 O          -1.5403    2.1878   -1.2415 O.2     1  UNL11      -0.2449
      2 C          -1.2611    1.0577   -0.8470 C.2     1  UNL11       0.3404
      3 O           0.1327    0.7916   -0.8609 O.3     1  UNL11      -0.4577
      4 C           1.0802    1.7287   -1.2845 C.3     1  UNL11       0.1267
      5 C           2.0070    1.9853   -0.1164 C.3     1  UNL11       0.1236
      6 O           1.2276    2.4716    0.9600 O.3     1  UNL11      -0.4886
      7 C           0.4803    3.6556    0.8055 C.ar    1  UNL11       0.1208
      8 C          -0.0069    4.0114   -0.4346 C.ar    1  UNL11      -0.0172
      9 C          -0.7420    5.1730   -0.5944 C.ar    1  UNL11      -0.0230
     10 C          -0.9811    5.9715    0.5057 C.ar    1  UNL11       0.1236
     11 F          -1.7135    7.1162    0.3122 F       1  UNL11      -0.2055
     12 C          -0.5084    5.6441    1.7584 C.ar    1  UNL11      -0.0230
     13 C           0.2218    4.4756    1.8776 C.ar    1  UNL11      -0.0172
     14 C          -2.1204   -0.0027   -0.3868 C.2     1  UNL11       0.0820
     15 C          -1.5930   -1.0359    0.4061 C.2     1  UNL11       0.0674
     16 C          -2.3701   -2.0610    0.8647 C.2     1  UNL11       0.4077
     17 O          -1.8277   -2.9555    1.5726 O.2     1  UNL11      -0.2148
     18 N          -3.6698   -2.1155    0.5715 N.am    1  UNL11      -0.1444
     19 C          -4.2284   -1.1538   -0.1837 C.ar    1  UNL11       0.2104
     20 C          -5.5824   -1.2329   -0.4747 C.ar    1  UNL11       0.0097
     21 C          -6.1435   -0.2571   -1.2395 C.ar    1  UNL11      -0.0555
     22 C          -5.4112    0.8004   -1.7300 C.ar    1  UNL11      -0.0608
     23 C          -4.0557    0.8960   -1.4490 C.ar    1  UNL11      -0.0475
     24 C          -3.4732   -0.0814   -0.6778 C.ar    1  UNL11       0.0599
     25 H           0.5902    2.7150   -1.5233 H       1  UNL11       0.0732
     26 H           1.6241    1.4347   -2.1930 H       1  UNL11       0.0732
     27 H           2.3816    0.9737    0.2052 H       1  UNL11       0.0731
     28 H           2.8349    2.6707   -0.3813 H       1  UNL11       0.0731
     29 H           0.1855    3.3785   -1.2937 H       1  UNL11       0.0655
     30 H          -1.1312    5.4626   -1.5709 H       1  UNL11       0.0647
     31 H          -0.6972    6.2700    2.6151 H       1  UNL11       0.0647
     32 H           0.6038    4.1918    2.8369 H       1  UNL11       0.0655
     33 H          -0.5265   -0.9657    0.6303 H       1  UNL11       0.0728
     34 H          -4.2637   -2.9206    0.9358 H       1  UNL11       0.4475
     35 H          -6.1216   -2.0775   -0.0715 H       1  UNL11       0.0683
     36 H          -7.2166   -0.3468   -1.4529 H       1  UNL11       0.0620
     37 H          -5.8750    1.5625   -2.3338 H       1  UNL11       0.0618
     38 H          -3.4849    1.7243   -1.8339 H       1  UNL11       0.0626
@<TRIPOS>BOND
     1     1     2    2
     2     2     3    1
     3     2    14    1
     4     3     4    1
     5     4     5    1
     6     4    25    1
     7     4    26    1
     8     5     6    1
     9     5    27    1
    10     5    28    1
    11     6     7    1
    12     7     8   ar
    13     8     9   ar
    14     8    29    1
    15     9    10   ar
    16     9    30    1
    17    10    11    1
    18    10    12   ar
    19    12    13   ar
    20    12    31    1
    21    13     7   ar
    22    13    32    1
    23    14    15    2
    24    15    16    1
    25    15    33    1
    26    16    17    2
    27    16    18   am
    28    18    19    1
    29    18    34    1
    30    19    20   ar
    31    20    21   ar
    32    20    35    1
    33    21    22   ar
    34    21    36    1
    35    22    23   ar
    36    22    37    1
    37    23    24   ar
    38    23    38    1
    39    24    14    1
    40    24    19   ar
@<TRIPOS>MOLECULE
*****
 38 40 0 0 0
SMALL
GASTEIGER

@<TRIPOS>ATOM
      1 O          -1.5403    2.1878   -1.2415 O.2     1  UNL11      -0.2449
      2 C          -1.2611    1.0577   -0.8470 C.2     1  UNL11       0.3404
      3 O           0.1327    0.7916   -0.8609 O.3     1  UNL11      -0.4577
      4 C           1.0802    1.7287   -1.2845 C.3     1  UNL11       0.1267
      5 C           1.3164    2.6774   -0.1298 C.3     1  UNL11       0.1236
      6 O           1.8110    1.9229    0.9604 O.3     1  UNL11      -0.4886
      7 C           1.9922    0.5325    0.8257 C.ar    1  UNL11       0.1208
      8 C           1.6907   -0.0940   -0.3653 C.ar    1  UNL11      -0.0172
      9 C           1.8661   -1.4596   -0.5055 C.ar    1  UNL11      -0.0230
     10 C           2.3474   -2.1868    0.5643 C.ar    1  UNL11       0.1236
     11 F           2.5095   -3.5389    0.3914 F       1  UNL11      -0.2055
     12 C           2.6581   -1.5909    1.7677 C.ar    1  UNL11      -0.0230
     13 C           2.4694   -0.2246    1.8686 C.ar    1  UNL11      -0.0172
     14 C          -2.1204   -0.0027   -0.3868 C.2     1  UNL11       0.0820
     15 C          -1.6578   -1.3295   -0.3915 C.2     1  UNL11       0.0674
     16 C          -2.4374   -2.3662    0.0356 C.2     1  UNL11       0.4077
     17 O          -1.9554   -3.5332    0.0030 O.2     1  UNL11      -0.2148
     18 N          -3.6774   -2.1507    0.4763 N.am    1  UNL11      -0.1444
     19 C          -4.1724   -0.9010    0.5032 C.ar    1  UNL11       0.2104
     20 C          -5.4650   -0.7028    0.9660 C.ar    1  UNL11       0.0097
     21 C          -5.9618    0.5639    0.9914 C.ar    1  UNL11      -0.0555
     22 C          -5.2237    1.6482    0.5738 C.ar    1  UNL11      -0.0608
     23 C          -3.9290    1.4689    0.1078 C.ar    1  UNL11      -0.0475
     24 C          -3.4118    0.1958    0.0756 C.ar    1  UNL11       0.0599
     25 H           0.6762    2.3535   -2.1308 H       1  UNL11       0.0732
     26 H           2.0131    1.2834   -1.6574 H       1  UNL11       0.0732
     27 H           2.1623    3.3469   -0.4517 H       1  UNL11       0.0731
     28 H           0.4077    3.2524    0.1327 H       1  UNL11       0.0731
     29 H           1.3130    0.4846   -1.2008 H       1  UNL11       0.0655
     30 H           1.6304   -1.9637   -1.4432 H       1  UNL11       0.0647
     31 H           3.0338   -2.1619    2.6008 H       1  UNL11       0.0647
     32 H           2.7010    0.2700    2.7899 H       1  UNL11       0.0655
     33 H          -0.6395   -1.4764   -0.7574 H       1  UNL11       0.0728
     34 H          -4.2741   -2.9684    0.8064 H       1  UNL11       0.4475
     35 H          -6.0111   -1.5787    1.2844 H       1  UNL11       0.0683
     36 H          -6.9874    0.6893    1.3627 H       1  UNL11       0.0620
     37 H          -5.6361    2.6430    0.6021 H       1  UNL11       0.0618
     38 H          -3.3535    2.3189   -0.2184 H       1  UNL11       0.0626
@<TRIPOS>BOND
     1     1     2    2
     2     2     3    1
     3     2    14    1
     4     3     4    1
     5     4     5    1
     6     4    25    1
     7     4    26    1
     8     5     6    1
     9     5    27    1
    10     5    28    1
    11     6     7    1
    12     7     8   ar
    13     8     9   ar
    14     8    29    1
    15     9    10   ar
    16     9    30    1
    17    10    11    1
    18    10    12   ar
    19    12    13   ar
    20    12    31    1
    21    13     7   ar
    22    13    32    1
    23    14    15    2
    24    15    16    1
    25    15    33    1
    26    16    17    2
    27    16    18   am
    28    18    19    1
    29    18    34    1
    30    19    20   ar
    31    20    21   ar
    32    20    35    1
    33    21    22   ar
    34    21    36    1
    35    22    23   ar
    36    22    37    1
    37    23    24   ar
    38    23    38    1
    39    24    14    1
    40    24    19   ar
@<TRIPOS>MOLECULE
*****
 38 40 0 0 0
SMALL
GASTEIGER

@<TRIPOS>ATOM
      1 O          -1.5403    2.1878   -1.2415 O.2     1  UNL11      -0.2449
      2 C          -1.2611    1.0577   -0.8470 C.2     1  UNL11       0.3404
      3 O           0.1327    0.7916   -0.8609 O.3     1  UNL11      -0.4577
      4 C           1.0543    1.5322   -0.1142 C.3     1  UNL11       0.1267
      5 C           0.6811    1.3698    1.3430 C.3     1  UNL11       0.1236
      6 O           0.7662   -0.0057    1.6643 O.3     1  UNL11      -0.4886
      7 C           1.9778   -0.5395    2.1453 C.ar    1  UNL11       0.1208
      8 C           2.0734   -1.8821    2.4453 C.ar    1  UNL11      -0.0172
      9 C           3.2604   -2.4140    2.9182 C.ar    1  UNL11      -0.0230
     10 C           4.3482   -1.5813    3.0857 C.ar    1  UNL11       0.1236
     11 F           5.5098   -2.1412    3.5564 F       1  UNL11      -0.2055
     12 C           4.2854   -0.2353    2.7951 C.ar    1  UNL11      -0.0230
     13 C           3.0822    0.2585    2.3248 C.ar    1  UNL11      -0.0172
     14 C          -2.1204   -0.0027   -0.3868 C.2     1  UNL11       0.0820
     15 C          -1.5629   -1.2223    0.0328 C.2     1  UNL11       0.0674
     16 C          -2.3387   -2.2548    0.4767 C.2     1  UNL11       0.4077
     17 O          -1.7685   -3.3223    0.8380 O.2     1  UNL11      -0.2148
     18 N          -3.6661   -2.1378    0.5270 N.am    1  UNL11      -0.1444
     19 C          -4.2543   -0.9933    0.1378 C.ar    1  UNL11       0.2104
     20 C          -5.6367   -0.8963    0.1996 C.ar    1  UNL11       0.0097
     21 C          -6.2276    0.2642   -0.1954 C.ar    1  UNL11      -0.0555
     22 C          -5.4981    1.3387   -0.6519 C.ar    1  UNL11      -0.0608
     23 C          -4.1144    1.2598   -0.7204 C.ar    1  UNL11      -0.0475
     24 C          -3.5016    0.0946   -0.3252 C.ar    1  UNL11       0.0599
     25 H           0.9656    2.6318   -0.3438 H       1  UNL11       0.0732
     26 H           2.1029    1.2673   -0.3093 H       1  UNL11       0.0732
     27 H           1.5002    1.8751    1.9270 H       1  UNL11       0.0731
     28 H          -0.3152    1.7954    1.5701 H       1  UNL11       0.0731
     29 H           1.2141   -2.5293    2.3109 H       1  UNL11       0.0655
     30 H           3.3456   -3.4742    3.1581 H       1  UNL11       0.0647
     31 H           5.1369    0.4117    2.9270 H       1  UNL11       0.0647
     32 H           2.9991    1.2999    2.0893 H       1  UNL11       0.0655
     33 H          -0.4742   -1.2899   -0.0191 H       1  UNL11       0.0728
     34 H          -4.2588   -2.9509    0.8752 H       1  UNL11       0.4475
     35 H          -6.1727   -1.7608    0.5631 H       1  UNL11       0.0683
     36 H          -7.3228    0.3111   -0.1353 H       1  UNL11       0.0620
     37 H          -5.9858    2.2486   -0.9598 H       1  UNL11       0.0618
     38 H          -3.5459    2.1018   -1.0779 H       1  UNL11       0.0626
@<TRIPOS>BOND
     1     1     2    2
     2     2     3    1
     3     2    14    1
     4     3     4    1
     5     4     5    1
     6     4    25    1
     7     4    26    1
     8     5     6    1
     9     5    27    1
    10     5    28    1
    11     6     7    1
    12     7     8   ar
    13     8     9   ar
    14     8    29    1
    15     9    10   ar
    16     9    30    1
    17    10    11    1
    18    10    12   ar
    19    12    13   ar
    20    12    31    1
    21    13     7   ar
    22    13    32    1
    23    14    15    2
    24    15    16    1
    25    15    33    1
    26    16    17    2
    27    16    18   am
    28    18    19    1
    29    18    34    1
    30    19    20   ar
    31    20    21   ar
    32    20    35    1
    33    21    22   ar
    34    21    36    1
    35    22    23   ar
    36    22    37    1
    37    23    24   ar
    38    23    38    1
    39    24    14    1
    40    24    19   ar
@<TRIPOS>MOLECULE
*****
 38 40 0 0 0
SMALL
GASTEIGER

@<TRIPOS>ATOM
      1 O          -1.5403    2.1878   -1.2415 O.2     1  UNL11      -0.2449
      2 C          -1.2611    1.0577   -0.8470 C.2     1  UNL11       0.3404
      3 O           0.1327    0.7916   -0.8609 O.3     1  UNL11      -0.4577
      4 C           1.0543    1.5322   -0.1142 C.3     1  UNL11       0.1267
      5 C           1.3301    2.8061   -0.8825 C.3     1  UNL11       0.1236
      6 O           1.8444    2.4475   -2.1512 O.3     1  UNL11      -0.4886
      7 C           2.0105    1.0883   -2.4815 C.ar    1  UNL11       0.1208
      8 C           1.6718    0.1074   -1.5732 C.ar    1  UNL11      -0.0172
      9 C           1.8320   -1.2301   -1.8904 C.ar    1  UNL11      -0.0230
     10 C           2.3360   -1.5693   -3.1297 C.ar    1  UNL11       0.1236
     11 F           2.4821   -2.9047   -3.4119 F       1  UNL11      -0.2055
     12 C           2.6840   -0.6133   -4.0597 C.ar    1  UNL11      -0.0230
     13 C           2.5093    0.7121   -3.7056 C.ar    1  UNL11      -0.0172
     14 C          -2.1204   -0.0027   -0.3868 C.2     1  UNL11       0.0820
     15 C          -1.5930   -1.0359    0.4061 C.2     1  UNL11       0.0674
     16 C          -2.3701   -2.0610    0.8647 C.2     1  UNL11       0.4077
     17 O          -1.8277   -2.9555    1.5726 O.2     1  UNL11      -0.2148
     18 N          -3.6698   -2.1155    0.5715 N.am    1  UNL11      -0.1444
     19 C          -4.2284   -1.1538   -0.1837 C.ar    1  UNL11       0.2104
     20 C          -5.5824   -1.2329   -0.4747 C.ar    1  UNL11       0.0097
     21 C          -6.1435   -0.2571   -1.2395 C.ar    1  UNL11      -0.0555
     22 C          -5.4112    0.8004   -1.7300 C.ar    1  UNL11      -0.0608
     23 C          -4.0557    0.8960   -1.4490 C.ar    1  UNL11      -0.0475
     24 C          -3.4732   -0.0814   -0.6778 C.ar    1  UNL11       0.0599
     25 H           2.0384    0.9884   -0.0379 H       1  UNL11       0.0732
     26 H           0.7372    1.7278    0.9197 H       1  UNL11       0.0732
     27 H           0.3232    3.2704   -1.0770 H       1  UNL11       0.0731
     28 H           2.0042    3.4898   -0.3318 H       1  UNL11       0.0731
     29 H           1.2765    0.3824   -0.6018 H       1  UNL11       0.0655
     30 H           1.5670   -2.0127   -1.1789 H       1  UNL11       0.0647
     31 H           3.0772   -0.8819   -5.0264 H       1  UNL11       0.0647
     32 H           2.7697    1.4803   -4.4049 H       1  UNL11       0.0655
     33 H          -0.5265   -0.9657    0.6303 H       1  UNL11       0.0728
     34 H          -4.2637   -2.9206    0.9358 H       1  UNL11       0.4475
     35 H          -6.1216   -2.0775   -0.0715 H       1  UNL11       0.0683
     36 H          -7.2166   -0.3468   -1.4529 H       1  UNL11       0.0620
     37 H          -5.8750    1.5625   -2.3338 H       1  UNL11       0.0618
     38 H          -3.4849    1.7243   -1.8339 H       1  UNL11       0.0626
@<TRIPOS>BOND
     1     1     2    2
     2     2     3    1
     3     2    14    1
     4     3     4    1
     5     4     5    1
     6     4    25    1
     7     4    26    1
     8     5     6    1
     9     5    27    1
    10     5    28    1
    11     6     7    1
    12     7     8   ar
    13     8     9   ar
    14     8    29    1
    15     9    10   ar
    16     9    30    1
    17    10    11    1
    18    10    12   ar
    19    12    13   ar
    20    12    31    1
    21    13     7   ar
    22    13    32    1
    23    14    15    2
    24    15    16    1
    25    15    33    1
    26    16    17    2
    27    16    18   am
    28    18    19    1
    29    18    34    1
    30    19    20   ar
    31    20    21   ar
    32    20    35    1
    33    21    22   ar
    34    21    36    1
    35    22    23   ar
    36    22    37    1
    37    23    24   ar
    38    23    38    1
    39    24    14    1
    40    24    19   ar
@<TRIPOS>MOLECULE
*****
 38 40 0 0 0
SMALL
GASTEIGER

@<TRIPOS>ATOM
      1 O          -1.5403    2.1878   -1.2415 O.2     1  UNL11      -0.2449
      2 C          -1.2611    1.0577   -0.8470 C.2     1  UNL11       0.3404
      3 O           0.1327    0.7916   -0.8609 O.3     1  UNL11      -0.4577
      4 C           1.0099    1.3862   -1.7732 C.3     1  UNL11       0.1267
      5 C           0.5374    1.0060   -3.1593 C.3     1  UNL11       0.1236
      6 O           1.4243    1.5864   -4.0968 O.3     1  UNL11      -0.4886
      7 C           1.5951    2.9842   -4.1279 C.ar    1  UNL11       0.1208
      8 C           1.4452    3.7270   -2.9756 C.ar    1  UNL11      -0.0172
      9 C           1.6114    5.1007   -2.9980 C.ar    1  UNL11      -0.0230
     10 C           1.9297    5.7179   -4.1908 C.ar    1  UNL11       0.1236
     11 F           2.0875    7.0815   -4.1777 F       1  UNL11      -0.2055
     12 C           2.0865    5.0044   -5.3596 C.ar    1  UNL11      -0.0230
     13 C           1.9123    3.6338   -5.2966 C.ar    1  UNL11      -0.0172
     14 C          -2.1204   -0.0027   -0.3868 C.2     1  UNL11       0.0820
     15 C          -3.5113    0.1924   -0.3455 C.2     1  UNL11       0.0674
     16 C          -4.3639   -0.7845    0.0833 C.2     1  UNL11       0.4077
     17 O          -5.6027   -0.5383    0.0935 O.2     1  UNL11      -0.2148
     18 N          -3.8988   -1.9691    0.4814 N.am    1  UNL11      -0.1444
     19 C          -2.5765   -2.2117    0.4631 C.ar    1  UNL11       0.2104
     20 C          -2.1175   -3.4518    0.8821 C.ar    1  UNL11       0.0097
     21 C          -0.7784   -3.6928    0.8619 C.ar    1  UNL11      -0.0555
     22 C           0.1292   -2.7475    0.4402 C.ar    1  UNL11      -0.0608
     23 C          -0.3117   -1.5015    0.0176 C.ar    1  UNL11      -0.0475
     24 C          -1.6614   -1.2417    0.0317 C.ar    1  UNL11       0.0599
     25 H           2.0488    0.9633   -1.6651 H       1  UNL11       0.0732
     26 H           1.1130    2.4734   -1.6501 H       1  UNL11       0.0732
     27 H           0.6873   -0.1068   -3.2394 H       1  UNL11       0.0731
     28 H          -0.5154    1.2979   -3.3377 H       1  UNL11       0.0731
     29 H           1.1951    3.2343   -2.0427 H       1  UNL11       0.0655
     30 H           1.4949    5.6963   -2.0922 H       1  UNL11       0.0647
     31 H           2.3351    5.4898   -6.2890 H       1  UNL11       0.0647
     32 H           2.0269    3.0494   -6.1867 H       1  UNL11       0.0655
     33 H          -3.8639    1.1714   -0.6770 H       1  UNL11       0.0728
     34 H          -4.5750   -2.7216    0.8133 H       1  UNL11       0.4475
     35 H          -2.8609   -4.1658    1.2053 H       1  UNL11       0.0683
     36 H          -0.4453   -4.6831    1.1992 H       1  UNL11       0.0620
     37 H           1.1855   -2.9587    0.4321 H       1  UNL11       0.0618
     38 H           0.4003   -0.7636   -0.3119 H       1  UNL11       0.0626
@<TRIPOS>BOND
     1     1     2    2
     2     2     3    1
     3     2    14    1
     4     3     4    1
     5     4     5    1
     6     4    25    1
     7     4    26    1
     8     5     6    1
     9     5    27    1
    10     5    28    1
    11     6     7    1
    12     7     8   ar
    13     8     9   ar
    14     8    29    1
    15     9    10   ar
    16     9    30    1
    17    10    11    1
    18    10    12   ar
    19    12    13   ar
    20    12    31    1
    21    13     7   ar
    22    13    32    1
    23    14    15    2
    24    15    16    1
    25    15    33    1
    26    16    17    2
    27    16    18   am
    28    18    19    1
    29    18    34    1
    30    19    20   ar
    31    20    21   ar
    32    20    35    1
    33    21    22   ar
    34    21    36    1
    35    22    23   ar
    36    22    37    1
    37    23    24   ar
    38    23    38    1
    39    24    14    1
    40    24    19   ar
@<TRIPOS>MOLECULE
*****
 38 40 0 0 0
SMALL
GASTEIGER

@<TRIPOS>ATOM
      1 O          -1.5403    2.1878   -1.2415 O.2     1  UNL11      -0.2449
      2 C          -1.2611    1.0577   -0.8470 C.2     1  UNL11       0.3404
      3 O           0.1327    0.7916   -0.8609 O.3     1  UNL11      -0.4577
      4 C           1.0802    1.7287   -1.2845 C.3     1  UNL11       0.1267
      5 C           0.9615    2.9279   -0.3696 C.3     1  UNL11       0.1236
      6 O          -0.3585    3.4271   -0.4740 O.3     1  UNL11      -0.4886
      7 C          -1.0724    3.2744   -1.6787 C.ar    1  UNL11       0.1208
      8 C          -0.8227    2.1957   -2.5008 C.ar    1  UNL11      -0.0172
      9 C          -1.5199    2.0387   -3.6860 C.ar    1  UNL11      -0.0230
     10 C          -2.4698    2.9776   -4.0342 C.ar    1  UNL11       0.1236
     11 F          -3.1429    2.7917   -5.2160 F       1  UNL11      -0.2055
     12 C          -2.7430    4.0667   -3.2347 C.ar    1  UNL11      -0.0230
     13 C          -2.0255    4.1886   -2.0586 C.ar    1  UNL11      -0.0172
     14 C          -2.1204   -0.0027   -0.3868 C.2     1  UNL11       0.0820
     15 C          -3.4225    0.2926    0.0508 C.2     1  UNL11       0.0674
     16 C          -4.2717   -0.6804    0.4952 C.2     1  UNL11       0.4077
     17 O          -5.4281   -0.3413    0.8735 O.2     1  UNL11      -0.2148
     18 N          -3.8882   -1.9571    0.5287 N.am    1  UNL11      -0.1444
     19 C          -2.6530   -2.2978    0.1218 C.ar    1  UNL11       0.2104
     20 C          -2.2779   -3.6326    0.1662 C.ar    1  UNL11       0.0097
     21 C          -1.0266   -3.9727   -0.2466 C.ar    1  UNL11      -0.0555
     22 C          -0.1271   -3.0366   -0.7045 C.ar    1  UNL11      -0.0608
     23 C          -0.4849   -1.6969   -0.7560 C.ar    1  UNL11      -0.0475
     24 C          -1.7452   -1.3362   -0.3427 C.ar    1  UNL11       0.0599
     25 H           0.8438    2.0972   -2.3228 H       1  UNL11       0.0732
     26 H           2.1061    1.3374   -1.3299 H       1  UNL11       0.0732
     27 H           1.0580    2.5253    0.6772 H       1  UNL11       0.0731
     28 H           1.7233    3.7002   -0.5902 H       1  UNL11       0.0731
     29 H          -0.0749    1.4627   -2.2199 H       1  UNL11       0.0655
     30 H          -1.3295    1.1892   -4.3424 H       1  UNL11       0.0647
     31 H          -3.4854    4.7977   -3.5098 H       1  UNL11       0.0647
     32 H          -2.2131    5.0232   -1.4143 H       1  UNL11       0.0655
     33 H          -3.7095    1.3455    0.0125 H       1  UNL11       0.0728
     34 H          -4.5606   -2.7053    0.8776 H       1  UNL11       0.4475
     35 H          -3.0119   -4.3358    0.5316 H       1  UNL11       0.0683
     36 H          -0.7586   -5.0363   -0.1999 H       1  UNL11       0.0620
     37 H           0.8589   -3.3271   -1.0268 H       1  UNL11       0.0618
     38 H           0.2206   -0.9663   -1.1146 H       1  UNL11       0.0626
@<TRIPOS>BOND
     1     1     2    2
     2     2     3    1
     3     2    14    1
     4     3     4    1
     5     4     5    1
     6     4    25    1
     7     4    26    1
     8     5     6    1
     9     5    27    1
    10     5    28    1
    11     6     7    1
    12     7     8   ar
    13     8     9   ar
    14     8    29    1
    15     9    10   ar
    16     9    30    1
    17    10    11    1
    18    10    12   ar
    19    12    13   ar
    20    12    31    1
    21    13     7   ar
    22    13    32    1
    23    14    15    2
    24    15    16    1
    25    15    33    1
    26    16    17    2
    27    16    18   am
    28    18    19    1
    29    18    34    1
    30    19    20   ar
    31    20    21   ar
    32    20    35    1
    33    21    22   ar
    34    21    36    1
    35    22    23   ar
    36    22    37    1
    37    23    24   ar
    38    23    38    1
    39    24    14    1
    40    24    19   ar
@<TRIPOS>MOLECULE
*****
 38 40 0 0 0
SMALL
GASTEIGER

@<TRIPOS>ATOM
      1 O          -1.5403    2.1878   -1.2415 O.2     1  UNL11      -0.2449
      2 C          -1.2611    1.0577   -0.8470 C.2     1  UNL11       0.3404
      3 O           0.1327    0.7916   -0.8609 O.3     1  UNL11      -0.4577
      4 C           0.9052    0.8508   -2.0250 C.3     1  UNL11       0.1267
      5 C           0.8135    2.2669   -2.5498 C.3     1  UNL11       0.1236
      6 O           1.5773    2.3416   -3.7387 O.3     1  UNL11      -0.4886
      7 C           2.2482    1.1978   -4.2138 C.ar    1  UNL11       0.1208
      8 C           2.1613    0.0064   -3.5247 C.ar    1  UNL11      -0.0172
      9 C           2.8176   -1.1217   -3.9851 C.ar    1  UNL11      -0.0230
     10 C           3.5612   -1.0379   -5.1448 C.ar    1  UNL11       0.1236
     11 F           4.1992   -2.1752   -5.5734 F       1  UNL11      -0.2055
     12 C           3.6682    0.1375   -5.8568 C.ar    1  UNL11      -0.0230
     13 C           2.9980    1.2427   -5.3647 C.ar    1  UNL11      -0.0172
     14 C          -2.1204   -0.0027   -0.3868 C.2     1  UNL11       0.0820
     15 C          -3.5113    0.1924   -0.3455 C.2     1  UNL11       0.0674
     16 C          -4.3639   -0.7845    0.0833 C.2     1  UNL11       0.4077
     17 O          -5.6027   -0.5383    0.0935 O.2     1  UNL11      -0.2148
     18 N          -3.8988   -1.9691    0.4814 N.am    1  UNL11      -0.1444
     19 C          -2.5765   -2.2117    0.4631 C.ar    1  UNL11       0.2104
     20 C          -2.1175   -3.4518    0.8821 C.ar    1  UNL11       0.0097
     21 C          -0.7784   -3.6928    0.8619 C.ar    1  UNL11      -0.0555
     22 C           0.1292   -2.7475    0.4402 C.ar    1  UNL11      -0.0608
     23 C          -0.3117   -1.5015    0.0176 C.ar    1  UNL11      -0.0475
     24 C          -1.6614   -1.2417    0.0317 C.ar    1  UNL11       0.0599
     25 H           0.4741    0.1868   -2.8269 H       1  UNL11       0.0732
     26 H           1.9449    0.5220   -1.8883 H       1  UNL11       0.0732
     27 H          -0.2588    2.4091   -2.8615 H       1  UNL11       0.0731
     28 H           1.1306    3.0139   -1.7970 H       1  UNL11       0.0731
     29 H           1.5750   -0.0508   -2.6145 H       1  UNL11       0.0655
     30 H           2.7548   -2.0679   -3.4471 H       1  UNL11       0.0647
     31 H           4.2497    0.1991   -6.7619 H       1  UNL11       0.0647
     32 H           3.0601    2.1718   -5.8936 H       1  UNL11       0.0655
     33 H          -3.8639    1.1714   -0.6770 H       1  UNL11       0.0728
     34 H          -4.5750   -2.7216    0.8133 H       1  UNL11       0.4475
     35 H          -2.8609   -4.1658    1.2053 H       1  UNL11       0.0683
     36 H          -0.4453   -4.6831    1.1992 H       1  UNL11       0.0620
     37 H           1.1855   -2.9587    0.4321 H       1  UNL11       0.0618
     38 H           0.4003   -0.7636   -0.3119 H       1  UNL11       0.0626
@<TRIPOS>BOND
     1     1     2    2
     2     2     3    1
     3     2    14    1
     4     3     4    1
     5     4     5    1
     6     4    25    1
     7     4    26    1
     8     5     6    1
     9     5    27    1
    10     5    28    1
    11     6     7    1
    12     7     8   ar
    13     8     9   ar
    14     8    29    1
    15     9    10   ar
    16     9    30    1
    17    10    11    1
    18    10    12   ar
    19    12    13   ar
    20    12    31    1
    21    13     7   ar
    22    13    32    1
    23    14    15    2
    24    15    16    1
    25    15    33    1
    26    16    17    2
    27    16    18   am
    28    18    19    1
    29    18    34    1
    30    19    20   ar
    31    20    21   ar
    32    20    35    1
    33    21    22   ar
    34    21    36    1
    35    22    23   ar
    36    22    37    1
    37    23    24   ar
    38    23    38    1
    39    24    14    1
    40    24    19   ar
@<TRIPOS>MOLECULE
*****
 38 40 0 0 0
SMALL
GASTEIGER

@<TRIPOS>ATOM
      1 O          -1.5403    2.1878   -1.2415 O.2     1  UNL11      -0.2449
      2 C          -1.2611    1.0577   -0.8470 C.2     1  UNL11       0.3404
      3 O           0.1327    0.7916   -0.8609 O.3     1  UNL11      -0.4577
      4 C           1.0543    1.5322   -0.1142 C.3     1  UNL11       0.1267
      5 C           1.7457    0.5678    0.8244 C.3     1  UNL11       0.1236
      6 O           2.4055   -0.4074    0.0394 O.3     1  UNL11      -0.4886
      7 C           3.1236   -1.4440    0.6672 C.ar    1  UNL11       0.1208
      8 C           3.1837   -1.5114    2.0433 C.ar    1  UNL11      -0.0172
      9 C           3.8871   -2.5268    2.6674 C.ar    1  UNL11      -0.0230
     10 C           4.5285   -3.4720    1.8927 C.ar    1  UNL11       0.1236
     11 F           5.2170   -4.4653    2.5437 F       1  UNL11      -0.2055
     12 C           4.4878   -3.4329    0.5155 C.ar    1  UNL11      -0.0230
     13 C           3.7747   -2.4031   -0.0709 C.ar    1  UNL11      -0.0172
     14 C          -2.1204   -0.0027   -0.3868 C.2     1  UNL11       0.0820
     15 C          -1.5629   -1.2223    0.0328 C.2     1  UNL11       0.0674
     16 C          -2.3387   -2.2548    0.4767 C.2     1  UNL11       0.4077
     17 O          -1.7685   -3.3223    0.8380 O.2     1  UNL11      -0.2148
     18 N          -3.6661   -2.1378    0.5270 N.am    1  UNL11      -0.1444
     19 C          -4.2543   -0.9933    0.1378 C.ar    1  UNL11       0.2104
     20 C          -5.6367   -0.8963    0.1996 C.ar    1  UNL11       0.0097
     21 C          -6.2276    0.2642   -0.1954 C.ar    1  UNL11      -0.0555
     22 C          -5.4981    1.3387   -0.6519 C.ar    1  UNL11      -0.0608
     23 C          -4.1144    1.2598   -0.7204 C.ar    1  UNL11      -0.0475
     24 C          -3.5016    0.0946   -0.3252 C.ar    1  UNL11       0.0599
     25 H           0.5291    2.2871    0.5369 H       1  UNL11       0.0732
     26 H           1.7666    2.1046   -0.7247 H       1  UNL11       0.0732
     27 H           2.5589    1.1610    1.3285 H       1  UNL11       0.0731
     28 H           1.0451    0.1186    1.5542 H       1  UNL11       0.0731
     29 H           2.6770   -0.7648    2.6444 H       1  UNL11       0.0655
     30 H           3.9403   -2.5884    3.7547 H       1  UNL11       0.0647
     31 H           4.9898   -4.1727   -0.0860 H       1  UNL11       0.0647
     32 H           3.7229   -2.3432   -1.1389 H       1  UNL11       0.0655
     33 H          -0.4742   -1.2899   -0.0191 H       1  UNL11       0.0728
     34 H          -4.2588   -2.9509    0.8752 H       1  UNL11       0.4475
     35 H          -6.1727   -1.7608    0.5631 H       1  UNL11       0.0683
     36 H          -7.3228    0.3111   -0.1353 H       1  UNL11       0.0620
     37 H          -5.9858    2.2486   -0.9598 H       1  UNL11       0.0618
     38 H          -3.5459    2.1018   -1.0779 H       1  UNL11       0.0626
@<TRIPOS>BOND
     1     1     2    2
     2     2     3    1
     3     2    14    1
     4     3     4    1
     5     4     5    1
     6     4    25    1
     7     4    26    1
     8     5     6    1
     9     5    27    1
    10     5    28    1
    11     6     7    1
    12     7     8   ar
    13     8     9   ar
    14     8    29    1
    15     9    10   ar
    16     9    30    1
    17    10    11    1
    18    10    12   ar
    19    12    13   ar
    20    12    31    1
    21    13     7   ar
    22    13    32    1
    23    14    15    2
    24    15    16    1
    25    15    33    1
    26    16    17    2
    27    16    18   am
    28    18    19    1
    29    18    34    1
    30    19    20   ar
    31    20    21   ar
    32    20    35    1
    33    21    22   ar
    34    21    36    1
    35    22    23   ar
    36    22    37    1
    37    23    24   ar
    38    23    38    1
    39    24    14    1
    40    24    19   ar
@<TRIPOS>MOLECULE
*****
 38 40 0 0 0
SMALL
GASTEIGER

@<TRIPOS>ATOM
      1 O          -1.5403    2.1878   -1.2415 O.2     1  UNL11      -0.2449
      2 C          -1.2611    1.0577   -0.8470 C.2     1  UNL11       0.3404
      3 O           0.1327    0.7916   -0.8609 O.3     1  UNL11      -0.4577
      4 C           1.0099    1.3862   -1.7732 C.3     1  UNL11       0.1267
      5 C           2.0319    2.1604   -0.9698 C.3     1  UNL11       0.1236
      6 O           2.9199    2.7834   -1.8785 O.3     1  UNL11      -0.4886
      7 C           3.1801    2.1843   -3.1265 C.ar    1  UNL11       0.1208
      8 C           3.1178    0.8135   -3.2642 C.ar    1  UNL11      -0.0172
      9 C           3.3721    0.2174   -4.4870 C.ar    1  UNL11      -0.0230
     10 C           3.6894    1.0146   -5.5681 C.ar    1  UNL11       0.1236
     11 F           3.9357    0.3912   -6.7660 F       1  UNL11      -0.2055
     12 C           3.7598    2.3872   -5.4637 C.ar    1  UNL11      -0.0230
     13 C           3.4991    2.9453   -4.2254 C.ar    1  UNL11      -0.0172
     14 C          -2.1204   -0.0027   -0.3868 C.2     1  UNL11       0.0820
     15 C          -1.5930   -1.0359    0.4061 C.2     1  UNL11       0.0674
     16 C          -2.3701   -2.0610    0.8647 C.2     1  UNL11       0.4077
     17 O          -1.8277   -2.9555    1.5726 O.2     1  UNL11      -0.2148
     18 N          -3.6698   -2.1155    0.5715 N.am    1  UNL11      -0.1444
     19 C          -4.2284   -1.1538   -0.1837 C.ar    1  UNL11       0.2104
     20 C          -5.5824   -1.2329   -0.4747 C.ar    1  UNL11       0.0097
     21 C          -6.1435   -0.2571   -1.2395 C.ar    1  UNL11      -0.0555
     22 C          -5.4112    0.8004   -1.7300 C.ar    1  UNL11      -0.0608
     23 C          -4.0557    0.8960   -1.4490 C.ar    1  UNL11      -0.0475
     24 C          -3.4732   -0.0814   -0.6778 C.ar    1  UNL11       0.0599
     25 H           0.4718    2.1413   -2.4136 H       1  UNL11       0.0732
     26 H           1.4767    0.6772   -2.4712 H       1  UNL11       0.0732
     27 H           1.4625    2.9945   -0.4726 H       1  UNL11       0.0731
     28 H           2.5591    1.5212   -0.2357 H       1  UNL11       0.0731
     29 H           2.8678    0.1945   -2.4099 H       1  UNL11       0.0655
     30 H           3.3252   -0.8654   -4.6056 H       1  UNL11       0.0647
     31 H           4.0078    3.0064   -6.3100 H       1  UNL11       0.0647
     32 H           3.5453    4.0089   -4.1097 H       1  UNL11       0.0655
     33 H          -0.5265   -0.9657    0.6303 H       1  UNL11       0.0728
     34 H          -4.2637   -2.9206    0.9358 H       1  UNL11       0.4475
     35 H          -6.1216   -2.0775   -0.0715 H       1  UNL11       0.0683
     36 H          -7.2166   -0.3468   -1.4529 H       1  UNL11       0.0620
     37 H          -5.8750    1.5625   -2.3338 H       1  UNL11       0.0618
     38 H          -3.4849    1.7243   -1.8339 H       1  UNL11       0.0626
@<TRIPOS>BOND
     1     1     2    2
     2     2     3    1
     3     2    14    1
     4     3     4    1
     5     4     5    1
     6     4    25    1
     7     4    26    1
     8     5     6    1
     9     5    27    1
    10     5    28    1
    11     6     7    1
    12     7     8   ar
    13     8     9   ar
    14     8    29    1
    15     9    10   ar
    16     9    30    1
    17    10    11    1
    18    10    12   ar
    19    12    13   ar
    20    12    31    1
    21    13     7   ar
    22    13    32    1
    23    14    15    2
    24    15    16    1
    25    15    33    1
    26    16    17    2
    27    16    18   am
    28    18    19    1
    29    18    34    1
    30    19    20   ar
    31    20    21   ar
    32    20    35    1
    33    21    22   ar
    34    21    36    1
    35    22    23   ar
    36    22    37    1
    37    23    24   ar
    38    23    38    1
    39    24    14    1
    40    24    19   ar
