@<TRIPOS>MOLECULE
*****
 30 32 0 0 0
SMALL
GASTEIGER

@<TRIPOS>ATOM
      1 O           3.8608    2.0619    1.1757 O.2     1  UNL11      -0.2116
      2 C           2.8137    1.6977    0.5590 C.2     1  UNL11       0.4383
      3 N           1.9239    2.5840    0.1003 N.am    1  UNL11      -0.0356
      4 N           0.8414    2.2029   -0.5365 N.2     1  UNL11      -0.0073
      5 C           0.5420    0.9133   -0.7764 C.2     1  UNL11       0.1193
      6 C          -0.7064    0.5895   -1.4427 C.3     1  UNL11       0.0224
      7 C          -1.5877    1.6827   -1.8257 C.ar    1  UNL11      -0.0231
      8 C          -1.6224    2.8484   -1.1163 C.ar    1  UNL11      -0.0568
      9 C          -2.5013    3.8817   -1.4800 C.ar    1  UNL11      -0.0614
     10 C          -3.3581    3.7720   -2.5522 C.ar    1  UNL11      -0.0604
     11 C          -3.3293    2.5896   -3.2787 C.ar    1  UNL11      -0.0431
     12 C          -2.4623    1.5882   -2.9088 C.ar    1  UNL11       0.0445
     13 CL         -2.4071    0.0854   -3.8012 Cl      1  UNL11      -0.0832
     14 C           1.4309   -0.0160   -0.3225 C.ar    1  UNL11       0.0192
     15 C           1.2432   -1.3647   -0.5245 C.ar    1  UNL11      -0.0518
     16 C           2.1654   -2.2753   -0.0654 C.ar    1  UNL11      -0.0611
     17 C           3.3076   -1.9137    0.6074 C.ar    1  UNL11      -0.0608
     18 C           3.5167   -0.5751    0.8187 C.ar    1  UNL11      -0.0441
     19 C           2.6012    0.3520    0.3642 C.ar    1  UNL11       0.1004
     20 H           2.1191    3.6228    0.2679 H       1  UNL11       0.4829
     21 H          -0.4721    0.0325   -2.4031 H       1  UNL11       0.0379
     22 H          -1.3191   -0.1797   -0.8786 H       1  UNL11       0.0379
     23 H          -0.9975    3.0509   -0.2329 H       1  UNL11       0.0621
     24 H          -2.4916    4.7906   -0.8854 H       1  UNL11       0.0618
     25 H          -4.0329    4.5856   -2.8177 H       1  UNL11       0.0618
     26 H          -3.9924    2.4762   -4.1257 H       1  UNL11       0.0632
     27 H           0.3599   -1.6505   -1.0684 H       1  UNL11       0.0624
     28 H           1.9766   -3.3323   -0.2465 H       1  UNL11       0.0618
     29 H           4.0312   -2.6267    0.9688 H       1  UNL11       0.0618
     30 H           4.3859   -0.1830    1.3385 H       1  UNL11       0.0627
@<TRIPOS>BOND
     1     1     2    2
     2     2     3   am
     3     3     4    1
     4     3    20    1
     5     4     5    2
     6     5     6    1
     7     5    14    1
     8     6     7    1
     9     6    21    1
    10     6    22    1
    11     7     8   ar
    12     8     9   ar
    13     8    23    1
    14     9    10   ar
    15     9    24    1
    16    10    11   ar
    17    10    25    1
    18    11    12   ar
    19    11    26    1
    20    12    13    1
    21    12     7   ar
    22    14    15   ar
    23    15    16   ar
    24    15    27    1
    25    16    17   ar
    26    16    28    1
    27    17    18   ar
    28    17    29    1
    29    18    19   ar
    30    18    30    1
    31    19     2    1
    32    19    14   ar
@<TRIPOS>MOLECULE
*****
 30 32 0 0 0
SMALL
GASTEIGER

@<TRIPOS>ATOM
      1 O           3.8608    2.0619    1.1757 O.2     1  UNL11      -0.2116
      2 C           2.8137    1.6977    0.5590 C.2     1  UNL11       0.4383
      3 N           1.9239    2.5840    0.1003 N.am    1  UNL11      -0.0356
      4 N           0.8414    2.2029   -0.5365 N.2     1  UNL11      -0.0073
      5 C           0.5420    0.9133   -0.7764 C.2     1  UNL11       0.1193
      6 C          -0.7064    0.5895   -1.4427 C.3     1  UNL11       0.0224
      7 C          -0.9285    1.1113   -2.7832 C.ar    1  UNL11      -0.0231
      8 C          -0.3728    2.2910   -3.1869 C.ar    1  UNL11      -0.0568
      9 C          -0.6225    2.7968   -4.4730 C.ar    1  UNL11      -0.0614
     10 C          -1.4275    2.1391   -5.3758 C.ar    1  UNL11      -0.0604
     11 C          -1.9969    0.9389   -4.9731 C.ar    1  UNL11      -0.0431
     12 C          -1.7415    0.4582   -3.7101 C.ar    1  UNL11       0.0445
     13 CL         -2.4487   -1.0480   -3.1724 Cl      1  UNL11      -0.0832
     14 C           1.4309   -0.0160   -0.3225 C.ar    1  UNL11       0.0192
     15 C           1.2432   -1.3647   -0.5245 C.ar    1  UNL11      -0.0518
     16 C           2.1654   -2.2753   -0.0654 C.ar    1  UNL11      -0.0611
     17 C           3.3076   -1.9137    0.6074 C.ar    1  UNL11      -0.0608
     18 C           3.5167   -0.5751    0.8187 C.ar    1  UNL11      -0.0441
     19 C           2.6012    0.3520    0.3642 C.ar    1  UNL11       0.1004
     20 H           2.1191    3.6228    0.2679 H       1  UNL11       0.4829
     21 H          -0.7876   -0.5385   -1.5345 H       1  UNL11       0.0379
     22 H          -1.6169    0.8314   -0.8121 H       1  UNL11       0.0379
     23 H           0.2762    2.9150   -2.5532 H       1  UNL11       0.0621
     24 H          -0.1570    3.7386   -4.7484 H       1  UNL11       0.0618
     25 H          -1.6090    2.5488   -6.3693 H       1  UNL11       0.0618
     26 H          -2.6342    0.4015   -5.6622 H       1  UNL11       0.0632
     27 H           0.3599   -1.6505   -1.0684 H       1  UNL11       0.0624
     28 H           1.9766   -3.3323   -0.2465 H       1  UNL11       0.0618
     29 H           4.0312   -2.6267    0.9688 H       1  UNL11       0.0618
     30 H           4.3859   -0.1830    1.3385 H       1  UNL11       0.0627
@<TRIPOS>BOND
     1     1     2    2
     2     2     3   am
     3     3     4    1
     4     3    20    1
     5     4     5    2
     6     5     6    1
     7     5    14    1
     8     6     7    1
     9     6    21    1
    10     6    22    1
    11     7     8   ar
    12     8     9   ar
    13     8    23    1
    14     9    10   ar
    15     9    24    1
    16    10    11   ar
    17    10    25    1
    18    11    12   ar
    19    11    26    1
    20    12    13    1
    21    12     7   ar
    22    14    15   ar
    23    15    16   ar
    24    15    27    1
    25    16    17   ar
    26    16    28    1
    27    17    18   ar
    28    17    29    1
    29    18    19   ar
    30    18    30    1
    31    19     2    1
    32    19    14   ar
@<TRIPOS>MOLECULE
*****
 30 32 0 0 0
SMALL
GASTEIGER

@<TRIPOS>ATOM
      1 O           3.8608    2.0619    1.1757 O.2     1  UNL11      -0.2116
      2 C           2.8137    1.6977    0.5590 C.2     1  UNL11       0.4383
      3 N           1.9239    2.5840    0.1003 N.am    1  UNL11      -0.0356
      4 N           0.8414    2.2029   -0.5365 N.2     1  UNL11      -0.0073
      5 C           0.5420    0.9133   -0.7764 C.2     1  UNL11       0.1193
      6 C          -0.7064    0.5895   -1.4427 C.3     1  UNL11       0.0224
      7 C          -1.9516    1.0078   -0.8159 C.ar    1  UNL11      -0.0231
      8 C          -2.0595    1.1255    0.5398 C.ar    1  UNL11      -0.0568
      9 C          -3.2771    1.4996    1.1312 C.ar    1  UNL11      -0.0614
     10 C          -4.4044    1.7615    0.3853 C.ar    1  UNL11      -0.0604
     11 C          -4.3034    1.6438   -0.9941 C.ar    1  UNL11      -0.0431
     12 C          -3.1033    1.2766   -1.5564 C.ar    1  UNL11       0.0445
     13 CL         -2.9466    1.1147   -3.2905 Cl      1  UNL11      -0.0832
     14 C           1.4309   -0.0160   -0.3225 C.ar    1  UNL11       0.0192
     15 C           1.2432   -1.3647   -0.5245 C.ar    1  UNL11      -0.0518
     16 C           2.1654   -2.2753   -0.0654 C.ar    1  UNL11      -0.0611
     17 C           3.3076   -1.9137    0.6074 C.ar    1  UNL11      -0.0608
     18 C           3.5167   -0.5751    0.8187 C.ar    1  UNL11      -0.0441
     19 C           2.6012    0.3520    0.3642 C.ar    1  UNL11       0.1004
     20 H           2.1191    3.6228    0.2679 H       1  UNL11       0.4829
     21 H          -0.7042    1.0680   -2.4716 H       1  UNL11       0.0379
     22 H          -0.7925   -0.5101   -1.7046 H       1  UNL11       0.0379
     23 H          -1.2350    0.9301    1.2427 H       1  UNL11       0.0621
     24 H          -3.3131    1.5807    2.2136 H       1  UNL11       0.0618
     25 H          -5.3401    2.0501    0.8638 H       1  UNL11       0.0618
     26 H          -5.1739    1.8430   -1.6043 H       1  UNL11       0.0632
     27 H           0.3599   -1.6505   -1.0684 H       1  UNL11       0.0624
     28 H           1.9766   -3.3323   -0.2465 H       1  UNL11       0.0618
     29 H           4.0312   -2.6267    0.9688 H       1  UNL11       0.0618
     30 H           4.3859   -0.1830    1.3385 H       1  UNL11       0.0627
@<TRIPOS>BOND
     1     1     2    2
     2     2     3   am
     3     3     4    1
     4     3    20    1
     5     4     5    2
     6     5     6    1
     7     5    14    1
     8     6     7    1
     9     6    21    1
    10     6    22    1
    11     7     8   ar
    12     8     9   ar
    13     8    23    1
    14     9    10   ar
    15     9    24    1
    16    10    11   ar
    17    10    25    1
    18    11    12   ar
    19    11    26    1
    20    12    13    1
    21    12     7   ar
    22    14    15   ar
    23    15    16   ar
    24    15    27    1
    25    16    17   ar
    26    16    28    1
    27    17    18   ar
    28    17    29    1
    29    18    19   ar
    30    18    30    1
    31    19     2    1
    32    19    14   ar
@<TRIPOS>MOLECULE
*****
 30 32 0 0 0
SMALL
GASTEIGER

@<TRIPOS>ATOM
      1 O           3.8608    2.0619    1.1757 O.2     1  UNL11      -0.2116
      2 C           2.8137    1.6977    0.5590 C.2     1  UNL11       0.4383
      3 N           1.9239    2.5840    0.1003 N.am    1  UNL11      -0.0356
      4 N           0.8414    2.2029   -0.5365 N.2     1  UNL11      -0.0073
      5 C           0.5420    0.9133   -0.7764 C.2     1  UNL11       0.1193
      6 C          -0.7064    0.5895   -1.4427 C.3     1  UNL11       0.0224
      7 C          -1.0189   -0.8123   -1.6790 C.ar    1  UNL11      -0.0231
      8 C          -0.0330   -1.7377   -1.8657 C.ar    1  UNL11      -0.0568
      9 C          -0.3516   -3.0808   -2.1242 C.ar    1  UNL11      -0.0614
     10 C          -1.6530   -3.5237   -2.2014 C.ar    1  UNL11      -0.0604
     11 C          -2.6617   -2.5890   -2.0131 C.ar    1  UNL11      -0.0431
     12 C          -2.3317   -1.2779   -1.7607 C.ar    1  UNL11       0.0445
     13 CL         -3.5802   -0.0766   -1.5245 Cl      1  UNL11      -0.0832
     14 C           1.4309   -0.0160   -0.3225 C.ar    1  UNL11       0.0192
     15 C           1.2432   -1.3647   -0.5245 C.ar    1  UNL11      -0.0518
     16 C           2.1654   -2.2753   -0.0654 C.ar    1  UNL11      -0.0611
     17 C           3.3076   -1.9137    0.6074 C.ar    1  UNL11      -0.0608
     18 C           3.5167   -0.5751    0.8187 C.ar    1  UNL11      -0.0441
     19 C           2.6012    0.3520    0.3642 C.ar    1  UNL11       0.1004
     20 H           2.1191    3.6228    0.2679 H       1  UNL11       0.4829
     21 H          -1.5655    0.9958   -0.8227 H       1  UNL11       0.0379
     22 H          -0.8439    1.1531   -2.4167 H       1  UNL11       0.0379
     23 H           1.0429   -1.5052   -1.8417 H       1  UNL11       0.0621
     24 H           0.4676   -3.7800   -2.2648 H       1  UNL11       0.0618
     25 H          -1.8791   -4.5706   -2.4034 H       1  UNL11       0.0618
     26 H          -3.6932   -2.9095   -2.0690 H       1  UNL11       0.0632
     27 H           0.3599   -1.6505   -1.0684 H       1  UNL11       0.0624
     28 H           1.9766   -3.3323   -0.2465 H       1  UNL11       0.0618
     29 H           4.0312   -2.6267    0.9688 H       1  UNL11       0.0618
     30 H           4.3859   -0.1830    1.3385 H       1  UNL11       0.0627
@<TRIPOS>BOND
     1     1     2    2
     2     2     3   am
     3     3     4    1
     4     3    20    1
     5     4     5    2
     6     5     6    1
     7     5    14    1
     8     6     7    1
     9     6    21    1
    10     6    22    1
    11     7     8   ar
    12     8     9   ar
    13     8    23    1
    14     9    10   ar
    15     9    24    1
    16    10    11   ar
    17    10    25    1
    18    11    12   ar
    19    11    26    1
    20    12    13    1
    21    12     7   ar
    22    14    15   ar
    23    15    16   ar
    24    15    27    1
    25    16    17   ar
    26    16    28    1
    27    17    18   ar
    28    17    29    1
    29    18    19   ar
    30    18    30    1
    31    19     2    1
    32    19    14   ar
@<TRIPOS>MOLECULE
*****
 30 32 0 0 0
SMALL
GASTEIGER

@<TRIPOS>ATOM
      1 O           3.8608    2.0619    1.1757 O.2     1  UNL11      -0.2116
      2 C           2.8137    1.6977    0.5590 C.2     1  UNL11       0.4383
      3 N           1.9239    2.5840    0.1003 N.am    1  UNL11      -0.0356
      4 N           0.8414    2.2029   -0.5365 N.2     1  UNL11      -0.0073
      5 C           0.5420    0.9133   -0.7764 C.2     1  UNL11       0.1193
      6 C          -0.7064    0.5895   -1.4427 C.3     1  UNL11       0.0224
      7 C          -0.7544   -0.6025   -2.2765 C.ar    1  UNL11      -0.0231
      8 C          -1.8917   -0.9575   -2.9427 C.ar    1  UNL11      -0.0568
      9 C          -1.9314   -2.1279   -3.7179 C.ar    1  UNL11      -0.0614
     10 C          -0.8432   -2.9622   -3.8421 C.ar    1  UNL11      -0.0604
     11 C           0.3172   -2.6087   -3.1675 C.ar    1  UNL11      -0.0431
     12 C           0.3386   -1.4590   -2.4130 C.ar    1  UNL11       0.0445
     13 CL          1.7840   -0.9904   -1.5476 Cl      1  UNL11      -0.0832
     14 C           1.4309   -0.0160   -0.3225 C.ar    1  UNL11       0.0192
     15 C           1.2432   -1.3647   -0.5245 C.ar    1  UNL11      -0.0518
     16 C           2.1654   -2.2753   -0.0654 C.ar    1  UNL11      -0.0611
     17 C           3.3076   -1.9137    0.6074 C.ar    1  UNL11      -0.0608
     18 C           3.5167   -0.5751    0.8187 C.ar    1  UNL11      -0.0441
     19 C           2.6012    0.3520    0.3642 C.ar    1  UNL11       0.1004
     20 H           2.1191    3.6228    0.2679 H       1  UNL11       0.4829
     21 H          -1.5120    0.4474   -0.6564 H       1  UNL11       0.0379
     22 H          -1.1239    1.4578   -2.0401 H       1  UNL11       0.0379
     23 H          -2.8294   -0.3814   -2.9114 H       1  UNL11       0.0621
     24 H          -2.8588   -2.3676   -4.2301 H       1  UNL11       0.0618
     25 H          -0.8948   -3.8664   -4.4485 H       1  UNL11       0.0618
     26 H           1.1871   -3.2465   -3.2470 H       1  UNL11       0.0632
     27 H           0.3599   -1.6505   -1.0684 H       1  UNL11       0.0624
     28 H           1.9766   -3.3323   -0.2465 H       1  UNL11       0.0618
     29 H           4.0312   -2.6267    0.9688 H       1  UNL11       0.0618
     30 H           4.3859   -0.1830    1.3385 H       1  UNL11       0.0627
@<TRIPOS>BOND
     1     1     2    2
     2     2     3   am
     3     3     4    1
     4     3    20    1
     5     4     5    2
     6     5     6    1
     7     5    14    1
     8     6     7    1
     9     6    21    1
    10     6    22    1
    11     7     8   ar
    12     8     9   ar
    13     8    23    1
    14     9    10   ar
    15     9    24    1
    16    10    11   ar
    17    10    25    1
    18    11    12   ar
    19    11    26    1
    20    12    13    1
    21    12     7   ar
    22    14    15   ar
    23    15    16   ar
    24    15    27    1
    25    16    17   ar
    26    16    28    1
    27    17    18   ar
    28    17    29    1
    29    18    19   ar
    30    18    30    1
    31    19     2    1
    32    19    14   ar
@<TRIPOS>MOLECULE
*****
 30 32 0 0 0
SMALL
GASTEIGER

@<TRIPOS>ATOM
      1 O           3.8608    2.0619    1.1757 O.2     1  UNL11      -0.2116
      2 C           2.8137    1.6977    0.5590 C.2     1  UNL11       0.4383
      3 N           1.9239    2.5840    0.1003 N.am    1  UNL11      -0.0356
      4 N           0.8414    2.2029   -0.5365 N.2     1  UNL11      -0.0073
      5 C           0.5420    0.9133   -0.7764 C.2     1  UNL11       0.1193
      6 C          -0.7064    0.5895   -1.4427 C.3     1  UNL11       0.0224
      7 C          -1.0189   -0.8123   -1.6790 C.ar    1  UNL11      -0.0231
      8 C          -0.5646   -1.7915   -0.8434 C.ar    1  UNL11      -0.0568
      9 C          -0.8483   -3.1423   -1.1029 C.ar    1  UNL11      -0.0614
     10 C          -1.5862   -3.5397   -2.1952 C.ar    1  UNL11      -0.0604
     11 C          -2.0517   -2.5501   -3.0501 C.ar    1  UNL11      -0.0431
     12 C          -1.7647   -1.2324   -2.7809 C.ar    1  UNL11       0.0445
     13 CL         -2.3327    0.0360   -3.8422 Cl      1  UNL11      -0.0832
     14 C           1.4309   -0.0160   -0.3225 C.ar    1  UNL11       0.0192
     15 C           1.2432   -1.3647   -0.5245 C.ar    1  UNL11      -0.0518
     16 C           2.1654   -2.2753   -0.0654 C.ar    1  UNL11      -0.0611
     17 C           3.3076   -1.9137    0.6074 C.ar    1  UNL11      -0.0608
     18 C           3.5167   -0.5751    0.8187 C.ar    1  UNL11      -0.0441
     19 C           2.6012    0.3520    0.3642 C.ar    1  UNL11       0.1004
     20 H           2.1191    3.6228    0.2679 H       1  UNL11       0.4829
     21 H          -1.5655    0.9958   -0.8227 H       1  UNL11       0.0379
     22 H          -0.8439    1.1531   -2.4167 H       1  UNL11       0.0379
     23 H           0.0455   -1.6022    0.0532 H       1  UNL11       0.0621
     24 H          -0.4658   -3.8848   -0.4086 H       1  UNL11       0.0618
     25 H          -1.7950   -4.5935   -2.3789 H       1  UNL11       0.0618
     26 H          -2.6335   -2.8343   -3.9166 H       1  UNL11       0.0632
     27 H           0.3599   -1.6505   -1.0684 H       1  UNL11       0.0624
     28 H           1.9766   -3.3323   -0.2465 H       1  UNL11       0.0618
     29 H           4.0312   -2.6267    0.9688 H       1  UNL11       0.0618
     30 H           4.3859   -0.1830    1.3385 H       1  UNL11       0.0627
@<TRIPOS>BOND
     1     1     2    2
     2     2     3   am
     3     3     4    1
     4     3    20    1
     5     4     5    2
     6     5     6    1
     7     5    14    1
     8     6     7    1
     9     6    21    1
    10     6    22    1
    11     7     8   ar
    12     8     9   ar
    13     8    23    1
    14     9    10   ar
    15     9    24    1
    16    10    11   ar
    17    10    25    1
    18    11    12   ar
    19    11    26    1
    20    12    13    1
    21    12     7   ar
    22    14    15   ar
    23    15    16   ar
    24    15    27    1
    25    16    17   ar
    26    16    28    1
    27    17    18   ar
    28    17    29    1
    29    18    19   ar
    30    18    30    1
    31    19     2    1
    32    19    14   ar
@<TRIPOS>MOLECULE
*****
 30 32 0 0 0
SMALL
GASTEIGER

@<TRIPOS>ATOM
      1 O           3.8608    2.0619    1.1757 O.2     1  UNL11      -0.2116
      2 C           2.8137    1.6977    0.5590 C.2     1  UNL11       0.4383
      3 N           1.9239    2.5840    0.1003 N.am    1  UNL11      -0.0356
      4 N           0.8414    2.2029   -0.5365 N.2     1  UNL11      -0.0073
      5 C           0.5420    0.9133   -0.7764 C.2     1  UNL11       0.1193
      6 C          -0.7064    0.5895   -1.4427 C.3     1  UNL11       0.0224
      7 C          -1.6642   -0.2530   -0.7418 C.ar    1  UNL11      -0.0231
      8 C          -3.0073   -0.1260   -0.9503 C.ar    1  UNL11      -0.0568
      9 C          -3.9202   -0.9248   -0.2426 C.ar    1  UNL11      -0.0614
     10 C          -3.5127   -1.8601    0.6821 C.ar    1  UNL11      -0.0604
     11 C          -2.1486   -1.9953    0.9004 C.ar    1  UNL11      -0.0431
     12 C          -1.2687   -1.2050    0.1985 C.ar    1  UNL11       0.0445
     13 CL          0.4549   -1.3486    0.4557 Cl      1  UNL11      -0.0832
     14 C           1.4309   -0.0160   -0.3225 C.ar    1  UNL11       0.0192
     15 C           1.2432   -1.3647   -0.5245 C.ar    1  UNL11      -0.0518
     16 C           2.1654   -2.2753   -0.0654 C.ar    1  UNL11      -0.0611
     17 C           3.3076   -1.9137    0.6074 C.ar    1  UNL11      -0.0608
     18 C           3.5167   -0.5751    0.8187 C.ar    1  UNL11      -0.0441
     19 C           2.6012    0.3520    0.3642 C.ar    1  UNL11       0.1004
     20 H           2.1191    3.6228    0.2679 H       1  UNL11       0.4829
     21 H          -1.2567    1.5547   -1.6729 H       1  UNL11       0.0379
     22 H          -0.5524    0.1634   -2.4819 H       1  UNL11       0.0379
     23 H          -3.4565    0.5937   -1.6519 H       1  UNL11       0.0621
     24 H          -4.9786   -0.7878   -0.4438 H       1  UNL11       0.0618
     25 H          -4.2375   -2.4700    1.2211 H       1  UNL11       0.0618
     26 H          -1.8007   -2.7221    1.6219 H       1  UNL11       0.0632
     27 H           0.3599   -1.6505   -1.0684 H       1  UNL11       0.0624
     28 H           1.9766   -3.3323   -0.2465 H       1  UNL11       0.0618
     29 H           4.0312   -2.6267    0.9688 H       1  UNL11       0.0618
     30 H           4.3859   -0.1830    1.3385 H       1  UNL11       0.0627
@<TRIPOS>BOND
     1     1     2    2
     2     2     3   am
     3     3     4    1
     4     3    20    1
     5     4     5    2
     6     5     6    1
     7     5    14    1
     8     6     7    1
     9     6    21    1
    10     6    22    1
    11     7     8   ar
    12     8     9   ar
    13     8    23    1
    14     9    10   ar
    15     9    24    1
    16    10    11   ar
    17    10    25    1
    18    11    12   ar
    19    11    26    1
    20    12    13    1
    21    12     7   ar
    22    14    15   ar
    23    15    16   ar
    24    15    27    1
    25    16    17   ar
    26    16    28    1
    27    17    18   ar
    28    17    29    1
    29    18    19   ar
    30    18    30    1
    31    19     2    1
    32    19    14   ar
@<TRIPOS>MOLECULE
*****
 30 32 0 0 0
SMALL
GASTEIGER

@<TRIPOS>ATOM
      1 O           3.8608    2.0619    1.1757 O.2     1  UNL11      -0.2116
      2 C           2.8137    1.6977    0.5590 C.2     1  UNL11       0.4383
      3 N           1.9239    2.5840    0.1003 N.am    1  UNL11      -0.0356
      4 N           0.8414    2.2029   -0.5365 N.2     1  UNL11      -0.0073
      5 C           0.5420    0.9133   -0.7764 C.2     1  UNL11       0.1193
      6 C          -0.7064    0.5895   -1.4427 C.3     1  UNL11       0.0224
      7 C          -1.6642   -0.2530   -0.7418 C.ar    1  UNL11      -0.0231
      8 C          -2.9221    0.1914   -0.4524 C.ar    1  UNL11      -0.0568
      9 C          -3.8241   -0.6221    0.2525 C.ar    1  UNL11      -0.0614
     10 C          -3.4899   -1.8874    0.6804 C.ar    1  UNL11      -0.0604
     11 C          -2.2125   -2.3468    0.3905 C.ar    1  UNL11      -0.0431
     12 C          -1.3421   -1.5370   -0.3009 C.ar    1  UNL11       0.0445
     13 CL          0.2752   -2.0859   -0.6760 Cl      1  UNL11      -0.0832
     14 C           1.4309   -0.0160   -0.3225 C.ar    1  UNL11       0.0192
     15 C           1.2432   -1.3647   -0.5245 C.ar    1  UNL11      -0.0518
     16 C           2.1654   -2.2753   -0.0654 C.ar    1  UNL11      -0.0611
     17 C           3.3076   -1.9137    0.6074 C.ar    1  UNL11      -0.0608
     18 C           3.5167   -0.5751    0.8187 C.ar    1  UNL11      -0.0441
     19 C           2.6012    0.3520    0.3642 C.ar    1  UNL11       0.1004
     20 H           2.1191    3.6228    0.2679 H       1  UNL11       0.4829
     21 H          -1.2567    1.5547   -1.6729 H       1  UNL11       0.0379
     22 H          -0.5524    0.1634   -2.4819 H       1  UNL11       0.0379
     23 H          -3.3024    1.1871   -0.7281 H       1  UNL11       0.0621
     24 H          -4.8137   -0.2248    0.4582 H       1  UNL11       0.0618
     25 H          -4.2046   -2.5029    1.2265 H       1  UNL11       0.0618
     26 H          -1.9232   -3.3371    0.7154 H       1  UNL11       0.0632
     27 H           0.3599   -1.6505   -1.0684 H       1  UNL11       0.0624
     28 H           1.9766   -3.3323   -0.2465 H       1  UNL11       0.0618
     29 H           4.0312   -2.6267    0.9688 H       1  UNL11       0.0618
     30 H           4.3859   -0.1830    1.3385 H       1  UNL11       0.0627
@<TRIPOS>BOND
     1     1     2    2
     2     2     3   am
     3     3     4    1
     4     3    20    1
     5     4     5    2
     6     5     6    1
     7     5    14    1
     8     6     7    1
     9     6    21    1
    10     6    22    1
    11     7     8   ar
    12     8     9   ar
    13     8    23    1
    14     9    10   ar
    15     9    24    1
    16    10    11   ar
    17    10    25    1
    18    11    12   ar
    19    11    26    1
    20    12    13    1
    21    12     7   ar
    22    14    15   ar
    23    15    16   ar
    24    15    27    1
    25    16    17   ar
    26    16    28    1
    27    17    18   ar
    28    17    29    1
    29    18    19   ar
    30    18    30    1
    31    19     2    1
    32    19    14   ar
@<TRIPOS>MOLECULE
*****
 30 32 0 0 0
SMALL
GASTEIGER

@<TRIPOS>ATOM
      1 O           3.8608    2.0619    1.1757 O.2     1  UNL11      -0.2116
      2 C           2.8137    1.6977    0.5590 C.2     1  UNL11       0.4383
      3 N           1.9239    2.5840    0.1003 N.am    1  UNL11      -0.0356
      4 N           0.8414    2.2029   -0.5365 N.2     1  UNL11      -0.0073
      5 C           0.5420    0.9133   -0.7764 C.2     1  UNL11       0.1193
      6 C          -0.7064    0.5895   -1.4427 C.3     1  UNL11       0.0224
      7 C          -0.6472   -0.1228   -2.7106 C.ar    1  UNL11      -0.0231
      8 C          -1.7820   -0.4459   -3.3970 C.ar    1  UNL11      -0.0568
      9 C          -1.7096   -1.1614   -4.6034 C.ar    1  UNL11      -0.0614
     10 C          -0.5101   -1.5663   -5.1446 C.ar    1  UNL11      -0.0604
     11 C           0.6487   -1.2421   -4.4527 C.ar    1  UNL11      -0.0431
     12 C           0.5594   -0.5409   -3.2729 C.ar    1  UNL11       0.0445
     13 CL          2.0011   -0.1227   -2.3761 Cl      1  UNL11      -0.0832
     14 C           1.4309   -0.0160   -0.3225 C.ar    1  UNL11       0.0192
     15 C           1.2432   -1.3647   -0.5245 C.ar    1  UNL11      -0.0518
     16 C           2.1654   -2.2753   -0.0654 C.ar    1  UNL11      -0.0611
     17 C           3.3076   -1.9137    0.6074 C.ar    1  UNL11      -0.0608
     18 C           3.5167   -0.5751    0.8187 C.ar    1  UNL11      -0.0441
     19 C           2.6012    0.3520    0.3642 C.ar    1  UNL11       0.1004
     20 H           2.1191    3.6228    0.2679 H       1  UNL11       0.4829
     21 H          -1.3284   -0.0620   -0.7527 H       1  UNL11       0.0379
     22 H          -1.3818    1.4907   -1.5729 H       1  UNL11       0.0379
     23 H          -2.7989   -0.1908   -3.0611 H       1  UNL11       0.0621
     24 H          -2.6398   -1.3941   -5.1133 H       1  UNL11       0.0618
     25 H          -0.4755   -2.1212   -6.0821 H       1  UNL11       0.0618
     26 H           1.6049   -1.5485   -4.8549 H       1  UNL11       0.0632
     27 H           0.3599   -1.6505   -1.0684 H       1  UNL11       0.0624
     28 H           1.9766   -3.3323   -0.2465 H       1  UNL11       0.0618
     29 H           4.0312   -2.6267    0.9688 H       1  UNL11       0.0618
     30 H           4.3859   -0.1830    1.3385 H       1  UNL11       0.0627
@<TRIPOS>BOND
     1     1     2    2
     2     2     3   am
     3     3     4    1
     4     3    20    1
     5     4     5    2
     6     5     6    1
     7     5    14    1
     8     6     7    1
     9     6    21    1
    10     6    22    1
    11     7     8   ar
    12     8     9   ar
    13     8    23    1
    14     9    10   ar
    15     9    24    1
    16    10    11   ar
    17    10    25    1
    18    11    12   ar
    19    11    26    1
    20    12    13    1
    21    12     7   ar
    22    14    15   ar
    23    15    16   ar
    24    15    27    1
    25    16    17   ar
    26    16    28    1
    27    17    18   ar
    28    17    29    1
    29    18    19   ar
    30    18    30    1
    31    19     2    1
    32    19    14   ar
@<TRIPOS>MOLECULE
*****
 30 32 0 0 0
SMALL
GASTEIGER

@<TRIPOS>ATOM
      1 O           3.8608    2.0619    1.1757 O.2     1  UNL11      -0.2116
      2 C           2.8137    1.6977    0.5590 C.2     1  UNL11       0.4383
      3 N           1.9239    2.5840    0.1003 N.am    1  UNL11      -0.0356
      4 N           0.8414    2.2029   -0.5365 N.2     1  UNL11      -0.0073
      5 C           0.5420    0.9133   -0.7764 C.2     1  UNL11       0.1193
      6 C          -0.7064    0.5895   -1.4427 C.3     1  UNL11       0.0224
      7 C          -1.6642   -0.2530   -0.7418 C.ar    1  UNL11      -0.0231
      8 C          -2.8509   -0.6076   -1.3156 C.ar    1  UNL11      -0.0568
      9 C          -3.7783   -1.3950   -0.6138 C.ar    1  UNL11      -0.0614
     10 C          -3.5408   -1.8406    0.6671 C.ar    1  UNL11      -0.0604
     11 C          -2.3365   -1.4841    1.2580 C.ar    1  UNL11      -0.0431
     12 C          -1.4398   -0.7128    0.5564 C.ar    1  UNL11       0.0445
     13 CL          0.0831   -0.2432    1.2762 Cl      1  UNL11      -0.0832
     14 C           1.4309   -0.0160   -0.3225 C.ar    1  UNL11       0.0192
     15 C           1.2432   -1.3647   -0.5245 C.ar    1  UNL11      -0.0518
     16 C           2.1654   -2.2753   -0.0654 C.ar    1  UNL11      -0.0611
     17 C           3.3076   -1.9137    0.6074 C.ar    1  UNL11      -0.0608
     18 C           3.5167   -0.5751    0.8187 C.ar    1  UNL11      -0.0441
     19 C           2.6012    0.3520    0.3642 C.ar    1  UNL11       0.1004
     20 H           2.1191    3.6228    0.2679 H       1  UNL11       0.4829
     21 H          -1.2567    1.5547   -1.6729 H       1  UNL11       0.0379
     22 H          -0.5524    0.1634   -2.4819 H       1  UNL11       0.0379
     23 H          -3.1618   -0.3028   -2.3268 H       1  UNL11       0.0621
     24 H          -4.7081   -1.6520   -1.1129 H       1  UNL11       0.0618
     25 H          -4.2739   -2.4505    1.1947 H       1  UNL11       0.0618
     26 H          -2.1242   -1.8200    2.2640 H       1  UNL11       0.0632
     27 H           0.3599   -1.6505   -1.0684 H       1  UNL11       0.0624
     28 H           1.9766   -3.3323   -0.2465 H       1  UNL11       0.0618
     29 H           4.0312   -2.6267    0.9688 H       1  UNL11       0.0618
     30 H           4.3859   -0.1830    1.3385 H       1  UNL11       0.0627
@<TRIPOS>BOND
     1     1     2    2
     2     2     3   am
     3     3     4    1
     4     3    20    1
     5     4     5    2
     6     5     6    1
     7     5    14    1
     8     6     7    1
     9     6    21    1
    10     6    22    1
    11     7     8   ar
    12     8     9   ar
    13     8    23    1
    14     9    10   ar
    15     9    24    1
    16    10    11   ar
    17    10    25    1
    18    11    12   ar
    19    11    26    1
    20    12    13    1
    21    12     7   ar
    22    14    15   ar
    23    15    16   ar
    24    15    27    1
    25    16    17   ar
    26    16    28    1
    27    17    18   ar
    28    17    29    1
    29    18    19   ar
    30    18    30    1
    31    19     2    1
    32    19    14   ar
@<TRIPOS>MOLECULE
*****
 30 32 0 0 0
SMALL
GASTEIGER

@<TRIPOS>ATOM
      1 O           3.8608    2.0619    1.1757 O.2     1  UNL11      -0.2116
      2 C           2.8137    1.6977    0.5590 C.2     1  UNL11       0.4383
      3 N           1.9239    2.5840    0.1003 N.am    1  UNL11      -0.0356
      4 N           0.8414    2.2029   -0.5365 N.2     1  UNL11      -0.0073
      5 C           0.5420    0.9133   -0.7764 C.2     1  UNL11       0.1193
      6 C          -0.7064    0.5895   -1.4427 C.3     1  UNL11       0.0224
      7 C          -0.6472   -0.1228   -2.7106 C.ar    1  UNL11      -0.0231
      8 C          -1.6027    0.0537   -3.6694 C.ar    1  UNL11      -0.0568
      9 C          -1.5485   -0.6650   -4.8747 C.ar    1  UNL11      -0.0614
     10 C          -0.5457   -1.5689   -5.1449 C.ar    1  UNL11      -0.0604
     11 C           0.4298   -1.7546   -4.1750 C.ar    1  UNL11      -0.0431
     12 C           0.3614   -1.0424   -3.0004 C.ar    1  UNL11       0.0445
     13 CL          1.5725   -1.2588   -1.7578 Cl      1  UNL11      -0.0832
     14 C           1.4309   -0.0160   -0.3225 C.ar    1  UNL11       0.0192
     15 C           1.2432   -1.3647   -0.5245 C.ar    1  UNL11      -0.0518
     16 C           2.1654   -2.2753   -0.0654 C.ar    1  UNL11      -0.0611
     17 C           3.3076   -1.9137    0.6074 C.ar    1  UNL11      -0.0608
     18 C           3.5167   -0.5751    0.8187 C.ar    1  UNL11      -0.0441
     19 C           2.6012    0.3520    0.3642 C.ar    1  UNL11       0.1004
     20 H           2.1191    3.6228    0.2679 H       1  UNL11       0.4829
     21 H          -1.3284   -0.0620   -0.7527 H       1  UNL11       0.0379
     22 H          -1.3818    1.4907   -1.5729 H       1  UNL11       0.0379
     23 H          -2.4603    0.7362   -3.5662 H       1  UNL11       0.0621
     24 H          -2.3310   -0.4894   -5.6072 H       1  UNL11       0.0618
     25 H          -0.5220   -2.1169   -6.0867 H       1  UNL11       0.0618
     26 H           1.2290   -2.4593   -4.3607 H       1  UNL11       0.0632
     27 H           0.3599   -1.6505   -1.0684 H       1  UNL11       0.0624
     28 H           1.9766   -3.3323   -0.2465 H       1  UNL11       0.0618
     29 H           4.0312   -2.6267    0.9688 H       1  UNL11       0.0618
     30 H           4.3859   -0.1830    1.3385 H       1  UNL11       0.0627
@<TRIPOS>BOND
     1     1     2    2
     2     2     3   am
     3     3     4    1
     4     3    20    1
     5     4     5    2
     6     5     6    1
     7     5    14    1
     8     6     7    1
     9     6    21    1
    10     6    22    1
    11     7     8   ar
    12     8     9   ar
    13     8    23    1
    14     9    10   ar
    15     9    24    1
    16    10    11   ar
    17    10    25    1
    18    11    12   ar
    19    11    26    1
    20    12    13    1
    21    12     7   ar
    22    14    15   ar
    23    15    16   ar
    24    15    27    1
    25    16    17   ar
    26    16    28    1
    27    17    18   ar
    28    17    29    1
    29    18    19   ar
    30    18    30    1
    31    19     2    1
    32    19    14   ar
@<TRIPOS>MOLECULE
*****
 30 32 0 0 0
SMALL
GASTEIGER

@<TRIPOS>ATOM
      1 O           3.8608    2.0619    1.1757 O.2     1  UNL11      -0.2116
      2 C           2.8137    1.6977    0.5590 C.2     1  UNL11       0.4383
      3 N           1.9239    2.5840    0.1003 N.am    1  UNL11      -0.0356
      4 N           0.8414    2.2029   -0.5365 N.2     1  UNL11      -0.0073
      5 C           0.5420    0.9133   -0.7764 C.2     1  UNL11       0.1193
      6 C          -0.7064    0.5895   -1.4427 C.3     1  UNL11       0.0224
      7 C          -1.6642   -0.2530   -0.7418 C.ar    1  UNL11      -0.0231
      8 C          -2.2071    0.1300    0.4507 C.ar    1  UNL11      -0.0568
      9 C          -3.1058   -0.7085    1.1302 C.ar    1  UNL11      -0.0614
     10 C          -3.4776   -1.9385    0.6357 C.ar    1  UNL11      -0.0604
     11 C          -2.9298   -2.3357   -0.5762 C.ar    1  UNL11      -0.0431
     12 C          -2.0515   -1.5021   -1.2282 C.ar    1  UNL11       0.0445
     13 CL         -1.3409   -1.9771   -2.7537 Cl      1  UNL11      -0.0832
     14 C           1.4309   -0.0160   -0.3225 C.ar    1  UNL11       0.0192
     15 C           1.2432   -1.3647   -0.5245 C.ar    1  UNL11      -0.0518
     16 C           2.1654   -2.2753   -0.0654 C.ar    1  UNL11      -0.0611
     17 C           3.3076   -1.9137    0.6074 C.ar    1  UNL11      -0.0608
     18 C           3.5167   -0.5751    0.8187 C.ar    1  UNL11      -0.0441
     19 C           2.6012    0.3520    0.3642 C.ar    1  UNL11       0.1004
     20 H           2.1191    3.6228    0.2679 H       1  UNL11       0.4829
     21 H          -1.2567    1.5547   -1.6729 H       1  UNL11       0.0379
     22 H          -0.5524    0.1634   -2.4819 H       1  UNL11       0.0379
     23 H          -1.9785    1.0818    0.9544 H       1  UNL11       0.0621
     24 H          -3.5119   -0.3595    2.0751 H       1  UNL11       0.0618
     25 H          -4.1764   -2.5745    1.1789 H       1  UNL11       0.0618
     26 H          -3.2040   -3.2977   -0.9876 H       1  UNL11       0.0632
     27 H           0.3599   -1.6505   -1.0684 H       1  UNL11       0.0624
     28 H           1.9766   -3.3323   -0.2465 H       1  UNL11       0.0618
     29 H           4.0312   -2.6267    0.9688 H       1  UNL11       0.0618
     30 H           4.3859   -0.1830    1.3385 H       1  UNL11       0.0627
@<TRIPOS>BOND
     1     1     2    2
     2     2     3   am
     3     3     4    1
     4     3    20    1
     5     4     5    2
     6     5     6    1
     7     5    14    1
     8     6     7    1
     9     6    21    1
    10     6    22    1
    11     7     8   ar
    12     8     9   ar
    13     8    23    1
    14     9    10   ar
    15     9    24    1
    16    10    11   ar
    17    10    25    1
    18    11    12   ar
    19    11    26    1
    20    12    13    1
    21    12     7   ar
    22    14    15   ar
    23    15    16   ar
    24    15    27    1
    25    16    17   ar
    26    16    28    1
    27    17    18   ar
    28    17    29    1
    29    18    19   ar
    30    18    30    1
    31    19     2    1
    32    19    14   ar
@<TRIPOS>MOLECULE
*****
 30 32 0 0 0
SMALL
GASTEIGER

@<TRIPOS>ATOM
      1 O           3.8608    2.0619    1.1757 O.2     1  UNL11      -0.2116
      2 C           2.8137    1.6977    0.5590 C.2     1  UNL11       0.4383
      3 N           1.9239    2.5840    0.1003 N.am    1  UNL11      -0.0356
      4 N           0.8414    2.2029   -0.5365 N.2     1  UNL11      -0.0073
      5 C           0.5420    0.9133   -0.7764 C.2     1  UNL11       0.1193
      6 C          -0.7064    0.5895   -1.4427 C.3     1  UNL11       0.0224
      7 C          -1.6642   -0.2530   -0.7418 C.ar    1  UNL11      -0.0231
      8 C          -2.6299    0.2849    0.0593 C.ar    1  UNL11      -0.0568
      9 C          -3.5267   -0.5431    0.7539 C.ar    1  UNL11      -0.0614
     10 C          -3.4771   -1.9161    0.6634 C.ar    1  UNL11      -0.0604
     11 C          -2.4978   -2.4711   -0.1488 C.ar    1  UNL11      -0.0431
     12 C          -1.6280   -1.6455   -0.8219 C.ar    1  UNL11       0.0445
     13 CL         -0.3806   -2.3154   -1.8481 Cl      1  UNL11      -0.0832
     14 C           1.4309   -0.0160   -0.3225 C.ar    1  UNL11       0.0192
     15 C           1.2432   -1.3647   -0.5245 C.ar    1  UNL11      -0.0518
     16 C           2.1654   -2.2753   -0.0654 C.ar    1  UNL11      -0.0611
     17 C           3.3076   -1.9137    0.6074 C.ar    1  UNL11      -0.0608
     18 C           3.5167   -0.5751    0.8187 C.ar    1  UNL11      -0.0441
     19 C           2.6012    0.3520    0.3642 C.ar    1  UNL11       0.1004
     20 H           2.1191    3.6228    0.2679 H       1  UNL11       0.4829
     21 H          -1.2567    1.5547   -1.6729 H       1  UNL11       0.0379
     22 H          -0.5524    0.1634   -2.4819 H       1  UNL11       0.0379
     23 H          -2.7626    1.3653    0.2237 H       1  UNL11       0.0621
     24 H          -4.2781   -0.0684    1.3781 H       1  UNL11       0.0618
     25 H          -4.1823   -2.5411    1.2111 H       1  UNL11       0.0618
     26 H          -2.4357   -3.5473   -0.2376 H       1  UNL11       0.0632
     27 H           0.3599   -1.6505   -1.0684 H       1  UNL11       0.0624
     28 H           1.9766   -3.3323   -0.2465 H       1  UNL11       0.0618
     29 H           4.0312   -2.6267    0.9688 H       1  UNL11       0.0618
     30 H           4.3859   -0.1830    1.3385 H       1  UNL11       0.0627
@<TRIPOS>BOND
     1     1     2    2
     2     2     3   am
     3     3     4    1
     4     3    20    1
     5     4     5    2
     6     5     6    1
     7     5    14    1
     8     6     7    1
     9     6    21    1
    10     6    22    1
    11     7     8   ar
    12     8     9   ar
    13     8    23    1
    14     9    10   ar
    15     9    24    1
    16    10    11   ar
    17    10    25    1
    18    11    12   ar
    19    11    26    1
    20    12    13    1
    21    12     7   ar
    22    14    15   ar
    23    15    16   ar
    24    15    27    1
    25    16    17   ar
    26    16    28    1
    27    17    18   ar
    28    17    29    1
    29    18    19   ar
    30    18    30    1
    31    19     2    1
    32    19    14   ar
@<TRIPOS>MOLECULE
*****
 30 32 0 0 0
SMALL
GASTEIGER

@<TRIPOS>ATOM
      1 O           3.8608    2.0619    1.1757 O.2     1  UNL11      -0.2116
      2 C           2.8137    1.6977    0.5590 C.2     1  UNL11       0.4383
      3 N           1.9239    2.5840    0.1003 N.am    1  UNL11      -0.0356
      4 N           0.8414    2.2029   -0.5365 N.2     1  UNL11      -0.0073
      5 C           0.5420    0.9133   -0.7764 C.2     1  UNL11       0.1193
      6 C          -0.7064    0.5895   -1.4427 C.3     1  UNL11       0.0224
      7 C          -0.6472   -0.1228   -2.7106 C.ar    1  UNL11      -0.0231
      8 C          -1.6433   -0.9739   -3.0939 C.ar    1  UNL11      -0.0568
      9 C          -1.5561   -1.6780   -4.3059 C.ar    1  UNL11      -0.0614
     10 C          -0.4791   -1.5477   -5.1537 C.ar    1  UNL11      -0.0604
     11 C           0.5384   -0.6845   -4.7711 C.ar    1  UNL11      -0.0431
     12 C           0.4367   -0.0027   -3.5811 C.ar    1  UNL11       0.0445
     13 CL          1.7048    1.0873   -3.0698 Cl      1  UNL11      -0.0832
     14 C           1.4309   -0.0160   -0.3225 C.ar    1  UNL11       0.0192
     15 C           1.2432   -1.3647   -0.5245 C.ar    1  UNL11      -0.0518
     16 C           2.1654   -2.2753   -0.0654 C.ar    1  UNL11      -0.0611
     17 C           3.3076   -1.9137    0.6074 C.ar    1  UNL11      -0.0608
     18 C           3.5167   -0.5751    0.8187 C.ar    1  UNL11      -0.0441
     19 C           2.6012    0.3520    0.3642 C.ar    1  UNL11       0.1004
     20 H           2.1191    3.6228    0.2679 H       1  UNL11       0.4829
     21 H          -1.3284   -0.0620   -0.7527 H       1  UNL11       0.0379
     22 H          -1.3818    1.4907   -1.5729 H       1  UNL11       0.0379
     23 H          -2.5469   -1.1731   -2.4975 H       1  UNL11       0.0621
     24 H          -2.3741   -2.3427   -4.5680 H       1  UNL11       0.0618
     25 H          -0.4305   -2.1036   -6.0899 H       1  UNL11       0.0618
     26 H           1.3968   -0.5635   -5.4180 H       1  UNL11       0.0632
     27 H           0.3599   -1.6505   -1.0684 H       1  UNL11       0.0624
     28 H           1.9766   -3.3323   -0.2465 H       1  UNL11       0.0618
     29 H           4.0312   -2.6267    0.9688 H       1  UNL11       0.0618
     30 H           4.3859   -0.1830    1.3385 H       1  UNL11       0.0627
@<TRIPOS>BOND
     1     1     2    2
     2     2     3   am
     3     3     4    1
     4     3    20    1
     5     4     5    2
     6     5     6    1
     7     5    14    1
     8     6     7    1
     9     6    21    1
    10     6    22    1
    11     7     8   ar
    12     8     9   ar
    13     8    23    1
    14     9    10   ar
    15     9    24    1
    16    10    11   ar
    17    10    25    1
    18    11    12   ar
    19    11    26    1
    20    12    13    1
    21    12     7   ar
    22    14    15   ar
    23    15    16   ar
    24    15    27    1
    25    16    17   ar
    26    16    28    1
    27    17    18   ar
    28    17    29    1
    29    18    19   ar
    30    18    30    1
    31    19     2    1
    32    19    14   ar
@<TRIPOS>MOLECULE
*****
 30 32 0 0 0
SMALL
GASTEIGER

@<TRIPOS>ATOM
      1 O           3.8608    2.0619    1.1757 O.2     1  UNL11      -0.2116
      2 C           2.8137    1.6977    0.5590 C.2     1  UNL11       0.4383
      3 N           1.9239    2.5840    0.1003 N.am    1  UNL11      -0.0356
      4 N           0.8414    2.2029   -0.5365 N.2     1  UNL11      -0.0073
      5 C           0.5420    0.9133   -0.7764 C.2     1  UNL11       0.1193
      6 C          -0.7064    0.5895   -1.4427 C.3     1  UNL11       0.0224
      7 C          -0.6472   -0.1228   -2.7106 C.ar    1  UNL11      -0.0231
      8 C          -0.5853    0.5465   -3.8987 C.ar    1  UNL11      -0.0568
      9 C          -0.5606   -0.1551   -5.1150 C.ar    1  UNL11      -0.0614
     10 C          -0.5976   -1.5304   -5.1689 C.ar    1  UNL11      -0.0604
     11 C          -0.6609   -2.2187   -3.9652 C.ar    1  UNL11      -0.0431
     12 C          -0.6841   -1.5158   -2.7834 C.ar    1  UNL11       0.0445
     13 CL         -0.7691   -2.3547   -1.2515 Cl      1  UNL11      -0.0832
     14 C           1.4309   -0.0160   -0.3225 C.ar    1  UNL11       0.0192
     15 C           1.2432   -1.3647   -0.5245 C.ar    1  UNL11      -0.0518
     16 C           2.1654   -2.2753   -0.0654 C.ar    1  UNL11      -0.0611
     17 C           3.3076   -1.9137    0.6074 C.ar    1  UNL11      -0.0608
     18 C           3.5167   -0.5751    0.8187 C.ar    1  UNL11      -0.0441
     19 C           2.6012    0.3520    0.3642 C.ar    1  UNL11       0.1004
     20 H           2.1191    3.6228    0.2679 H       1  UNL11       0.4829
     21 H          -1.3284   -0.0620   -0.7527 H       1  UNL11       0.0379
     22 H          -1.3818    1.4907   -1.5729 H       1  UNL11       0.0379
     23 H          -0.5646    1.6436   -3.9874 H       1  UNL11       0.0621
     24 H          -0.5102    0.4216   -6.0340 H       1  UNL11       0.0618
     25 H          -0.5779   -2.0560   -6.1235 H       1  UNL11       0.0618
     26 H          -0.6917   -3.2998   -3.9782 H       1  UNL11       0.0632
     27 H           0.3599   -1.6505   -1.0684 H       1  UNL11       0.0624
     28 H           1.9766   -3.3323   -0.2465 H       1  UNL11       0.0618
     29 H           4.0312   -2.6267    0.9688 H       1  UNL11       0.0618
     30 H           4.3859   -0.1830    1.3385 H       1  UNL11       0.0627
@<TRIPOS>BOND
     1     1     2    2
     2     2     3   am
     3     3     4    1
     4     3    20    1
     5     4     5    2
     6     5     6    1
     7     5    14    1
     8     6     7    1
     9     6    21    1
    10     6    22    1
    11     7     8   ar
    12     8     9   ar
    13     8    23    1
    14     9    10   ar
    15     9    24    1
    16    10    11   ar
    17    10    25    1
    18    11    12   ar
    19    11    26    1
    20    12    13    1
    21    12     7   ar
    22    14    15   ar
    23    15    16   ar
    24    15    27    1
    25    16    17   ar
    26    16    28    1
    27    17    18   ar
    28    17    29    1
    29    18    19   ar
    30    18    30    1
    31    19     2    1
    32    19    14   ar
@<TRIPOS>MOLECULE
*****
 30 32 0 0 0
SMALL
GASTEIGER

@<TRIPOS>ATOM
      1 O           3.8608    2.0619    1.1757 O.2     1  UNL11      -0.2116
      2 C           2.8137    1.6977    0.5590 C.2     1  UNL11       0.4383
      3 N           1.9239    2.5840    0.1003 N.am    1  UNL11      -0.0356
      4 N           0.8414    2.2029   -0.5365 N.2     1  UNL11      -0.0073
      5 C           0.5420    0.9133   -0.7764 C.2     1  UNL11       0.1193
      6 C          -0.7064    0.5895   -1.4427 C.3     1  UNL11       0.0224
      7 C          -0.6472   -0.1228   -2.7106 C.ar    1  UNL11      -0.0231
      8 C          -1.1656    0.4161   -3.8526 C.ar    1  UNL11      -0.0568
      9 C          -1.1289   -0.2975   -5.0616 C.ar    1  UNL11      -0.0614
     10 C          -0.5776   -1.5558   -5.1537 C.ar    1  UNL11      -0.0604
     11 C          -0.0485   -2.1112   -3.9969 C.ar    1  UNL11      -0.0431
     12 C          -0.0927   -1.3984   -2.8216 C.ar    1  UNL11       0.0445
     13 CL          0.5608   -2.0740   -1.3471 Cl      1  UNL11      -0.0832
     14 C           1.4309   -0.0160   -0.3225 C.ar    1  UNL11       0.0192
     15 C           1.2432   -1.3647   -0.5245 C.ar    1  UNL11      -0.0518
     16 C           2.1654   -2.2753   -0.0654 C.ar    1  UNL11      -0.0611
     17 C           3.3076   -1.9137    0.6074 C.ar    1  UNL11      -0.0608
     18 C           3.5167   -0.5751    0.8187 C.ar    1  UNL11      -0.0441
     19 C           2.6012    0.3520    0.3642 C.ar    1  UNL11       0.1004
     20 H           2.1191    3.6228    0.2679 H       1  UNL11       0.4829
     21 H          -1.3284   -0.0620   -0.7527 H       1  UNL11       0.0379
     22 H          -1.3818    1.4907   -1.5729 H       1  UNL11       0.0379
     23 H          -1.6443    1.4062   -3.9045 H       1  UNL11       0.0621
     24 H          -1.5532    0.1737   -5.9434 H       1  UNL11       0.0618
     25 H          -0.5593   -2.0931   -6.1018 H       1  UNL11       0.0618
     26 H           0.3903   -3.0989   -4.0405 H       1  UNL11       0.0632
     27 H           0.3599   -1.6505   -1.0684 H       1  UNL11       0.0624
     28 H           1.9766   -3.3323   -0.2465 H       1  UNL11       0.0618
     29 H           4.0312   -2.6267    0.9688 H       1  UNL11       0.0618
     30 H           4.3859   -0.1830    1.3385 H       1  UNL11       0.0627
@<TRIPOS>BOND
     1     1     2    2
     2     2     3   am
     3     3     4    1
     4     3    20    1
     5     4     5    2
     6     5     6    1
     7     5    14    1
     8     6     7    1
     9     6    21    1
    10     6    22    1
    11     7     8   ar
    12     8     9   ar
    13     8    23    1
    14     9    10   ar
    15     9    24    1
    16    10    11   ar
    17    10    25    1
    18    11    12   ar
    19    11    26    1
    20    12    13    1
    21    12     7   ar
    22    14    15   ar
    23    15    16   ar
    24    15    27    1
    25    16    17   ar
    26    16    28    1
    27    17    18   ar
    28    17    29    1
    29    18    19   ar
    30    18    30    1
    31    19     2    1
    32    19    14   ar
@<TRIPOS>MOLECULE
*****
 30 32 0 0 0
SMALL
GASTEIGER

@<TRIPOS>ATOM
      1 O           3.8608    2.0619    1.1757 O.2     1  UNL11      -0.2116
      2 C           2.8137    1.6977    0.5590 C.2     1  UNL11       0.4383
      3 N           1.9239    2.5840    0.1003 N.am    1  UNL11      -0.0356
      4 N           0.8414    2.2029   -0.5365 N.2     1  UNL11      -0.0073
      5 C           0.5420    0.9133   -0.7764 C.2     1  UNL11       0.1193
      6 C          -0.7064    0.5895   -1.4427 C.3     1  UNL11       0.0224
      7 C          -1.6642   -0.2530   -0.7418 C.ar    1  UNL11      -0.0231
      8 C          -2.5080   -1.0845   -1.4200 C.ar    1  UNL11      -0.0568
      9 C          -3.4482   -1.8676   -0.7309 C.ar    1  UNL11      -0.0614
     10 C          -3.5643   -1.8358    0.6407 C.ar    1  UNL11      -0.0604
     11 C          -2.7102   -0.9926    1.3380 C.ar    1  UNL11      -0.0431
     12 C          -1.7954   -0.2329    0.6472 C.ar    1  UNL11       0.0445
     13 CL         -0.7099    0.8425    1.4975 Cl      1  UNL11      -0.0832
     14 C           1.4309   -0.0160   -0.3225 C.ar    1  UNL11       0.0192
     15 C           1.2432   -1.3647   -0.5245 C.ar    1  UNL11      -0.0518
     16 C           2.1654   -2.2753   -0.0654 C.ar    1  UNL11      -0.0611
     17 C           3.3076   -1.9137    0.6074 C.ar    1  UNL11      -0.0608
     18 C           3.5167   -0.5751    0.8187 C.ar    1  UNL11      -0.0441
     19 C           2.6012    0.3520    0.3642 C.ar    1  UNL11       0.1004
     20 H           2.1191    3.6228    0.2679 H       1  UNL11       0.4829
     21 H          -1.2567    1.5547   -1.6729 H       1  UNL11       0.0379
     22 H          -0.5524    0.1634   -2.4819 H       1  UNL11       0.0379
     23 H          -2.5217   -1.1880   -2.5160 H       1  UNL11       0.0621
     24 H          -4.0970   -2.5144   -1.3143 H       1  UNL11       0.0618
     25 H          -4.3011   -2.4514    1.1566 H       1  UNL11       0.0618
     26 H          -2.7802   -0.9474    2.4165 H       1  UNL11       0.0632
     27 H           0.3599   -1.6505   -1.0684 H       1  UNL11       0.0624
     28 H           1.9766   -3.3323   -0.2465 H       1  UNL11       0.0618
     29 H           4.0312   -2.6267    0.9688 H       1  UNL11       0.0618
     30 H           4.3859   -0.1830    1.3385 H       1  UNL11       0.0627
@<TRIPOS>BOND
     1     1     2    2
     2     2     3   am
     3     3     4    1
     4     3    20    1
     5     4     5    2
     6     5     6    1
     7     5    14    1
     8     6     7    1
     9     6    21    1
    10     6    22    1
    11     7     8   ar
    12     8     9   ar
    13     8    23    1
    14     9    10   ar
    15     9    24    1
    16    10    11   ar
    17    10    25    1
    18    11    12   ar
    19    11    26    1
    20    12    13    1
    21    12     7   ar
    22    14    15   ar
    23    15    16   ar
    24    15    27    1
    25    16    17   ar
    26    16    28    1
    27    17    18   ar
    28    17    29    1
    29    18    19   ar
    30    18    30    1
    31    19     2    1
    32    19    14   ar
@<TRIPOS>MOLECULE
*****
 30 32 0 0 0
SMALL
GASTEIGER

@<TRIPOS>ATOM
      1 O           3.8608    2.0619    1.1757 O.2     1  UNL11      -0.2116
      2 C           2.8137    1.6977    0.5590 C.2     1  UNL11       0.4383
      3 N           1.9239    2.5840    0.1003 N.am    1  UNL11      -0.0356
      4 N           0.8414    2.2029   -0.5365 N.2     1  UNL11      -0.0073
      5 C           0.5420    0.9133   -0.7764 C.2     1  UNL11       0.1193
      6 C          -0.7064    0.5895   -1.4427 C.3     1  UNL11       0.0224
      7 C          -1.8851    0.3528   -0.6223 C.ar    1  UNL11      -0.0231
      8 C          -3.1381    0.6436   -1.0792 C.ar    1  UNL11      -0.0568
      9 C          -4.2628    0.4391   -0.2634 C.ar    1  UNL11      -0.0614
     10 C          -4.1594   -0.0563    1.0171 C.ar    1  UNL11      -0.0604
     11 C          -2.8886   -0.3544    1.4895 C.ar    1  UNL11      -0.0431
     12 C          -1.7983   -0.1481    0.6771 C.ar    1  UNL11       0.0445
     13 CL         -0.1847   -0.5090    1.2462 Cl      1  UNL11      -0.0832
     14 C           1.4309   -0.0160   -0.3225 C.ar    1  UNL11       0.0192
     15 C           1.2432   -1.3647   -0.5245 C.ar    1  UNL11      -0.0518
     16 C           2.1654   -2.2753   -0.0654 C.ar    1  UNL11      -0.0611
     17 C           3.3076   -1.9137    0.6074 C.ar    1  UNL11      -0.0608
     18 C           3.5167   -0.5751    0.8187 C.ar    1  UNL11      -0.0441
     19 C           2.6012    0.3520    0.3642 C.ar    1  UNL11       0.1004
     20 H           2.1191    3.6228    0.2679 H       1  UNL11       0.4829
     21 H          -0.9810    1.4447   -2.1360 H       1  UNL11       0.0379
     22 H          -0.6041   -0.2707   -2.1740 H       1  UNL11       0.0379
     23 H          -3.3494    1.0567   -2.0775 H       1  UNL11       0.0621
     24 H          -5.2388    0.6846   -0.6718 H       1  UNL11       0.0618
     25 H          -5.0449   -0.2075    1.6343 H       1  UNL11       0.0618
     26 H          -2.7782   -0.7444    2.4923 H       1  UNL11       0.0632
     27 H           0.3599   -1.6505   -1.0684 H       1  UNL11       0.0624
     28 H           1.9766   -3.3323   -0.2465 H       1  UNL11       0.0618
     29 H           4.0312   -2.6267    0.9688 H       1  UNL11       0.0618
     30 H           4.3859   -0.1830    1.3385 H       1  UNL11       0.0627
@<TRIPOS>BOND
     1     1     2    2
     2     2     3   am
     3     3     4    1
     4     3    20    1
     5     4     5    2
     6     5     6    1
     7     5    14    1
     8     6     7    1
     9     6    21    1
    10     6    22    1
    11     7     8   ar
    12     8     9   ar
    13     8    23    1
    14     9    10   ar
    15     9    24    1
    16    10    11   ar
    17    10    25    1
    18    11    12   ar
    19    11    26    1
    20    12    13    1
    21    12     7   ar
    22    14    15   ar
    23    15    16   ar
    24    15    27    1
    25    16    17   ar
    26    16    28    1
    27    17    18   ar
    28    17    29    1
    29    18    19   ar
    30    18    30    1
    31    19     2    1
    32    19    14   ar
@<TRIPOS>MOLECULE
*****
 30 32 0 0 0
SMALL
GASTEIGER

@<TRIPOS>ATOM
      1 O           3.8608    2.0619    1.1757 O.2     1  UNL11      -0.2116
      2 C           2.8137    1.6977    0.5590 C.2     1  UNL11       0.4383
      3 N           1.9239    2.5840    0.1003 N.am    1  UNL11      -0.0356
      4 N           0.8414    2.2029   -0.5365 N.2     1  UNL11      -0.0073
      5 C           0.5420    0.9133   -0.7764 C.2     1  UNL11       0.1193
      6 C          -0.7064    0.5895   -1.4427 C.3     1  UNL11       0.0224
      7 C          -1.8851    0.3528   -0.6223 C.ar    1  UNL11      -0.0231
      8 C          -3.0050    1.1229   -0.7497 C.ar    1  UNL11      -0.0568
      9 C          -4.1227    0.9020    0.0715 C.ar    1  UNL11      -0.0614
     10 C          -4.1441   -0.0856    1.0305 C.ar    1  UNL11      -0.0604
     11 C          -3.0091   -0.8730    1.1668 C.ar    1  UNL11      -0.0431
     12 C          -1.9237   -0.6431    0.3543 C.ar    1  UNL11       0.0445
     13 CL         -0.4778   -1.6148    0.5060 Cl      1  UNL11      -0.0832
     14 C           1.4309   -0.0160   -0.3225 C.ar    1  UNL11       0.0192
     15 C           1.2432   -1.3647   -0.5245 C.ar    1  UNL11      -0.0518
     16 C           2.1654   -2.2753   -0.0654 C.ar    1  UNL11      -0.0611
     17 C           3.3076   -1.9137    0.6074 C.ar    1  UNL11      -0.0608
     18 C           3.5167   -0.5751    0.8187 C.ar    1  UNL11      -0.0441
     19 C           2.6012    0.3520    0.3642 C.ar    1  UNL11       0.1004
     20 H           2.1191    3.6228    0.2679 H       1  UNL11       0.4829
     21 H          -0.9810    1.4447   -2.1360 H       1  UNL11       0.0379
     22 H          -0.6041   -0.2707   -2.1740 H       1  UNL11       0.0379
     23 H          -3.1051    1.9505   -1.4687 H       1  UNL11       0.0621
     24 H          -4.9905    1.5400   -0.0682 H       1  UNL11       0.0618
     25 H          -5.0217   -0.2405    1.6580 H       1  UNL11       0.0618
     26 H          -2.9984   -1.6560    1.9130 H       1  UNL11       0.0632
     27 H           0.3599   -1.6505   -1.0684 H       1  UNL11       0.0624
     28 H           1.9766   -3.3323   -0.2465 H       1  UNL11       0.0618
     29 H           4.0312   -2.6267    0.9688 H       1  UNL11       0.0618
     30 H           4.3859   -0.1830    1.3385 H       1  UNL11       0.0627
@<TRIPOS>BOND
     1     1     2    2
     2     2     3   am
     3     3     4    1
     4     3    20    1
     5     4     5    2
     6     5     6    1
     7     5    14    1
     8     6     7    1
     9     6    21    1
    10     6    22    1
    11     7     8   ar
    12     8     9   ar
    13     8    23    1
    14     9    10   ar
    15     9    24    1
    16    10    11   ar
    17    10    25    1
    18    11    12   ar
    19    11    26    1
    20    12    13    1
    21    12     7   ar
    22    14    15   ar
    23    15    16   ar
    24    15    27    1
    25    16    17   ar
    26    16    28    1
    27    17    18   ar
    28    17    29    1
    29    18    19   ar
    30    18    30    1
    31    19     2    1
    32    19    14   ar
@<TRIPOS>MOLECULE
*****
 30 32 0 0 0
SMALL
GASTEIGER

@<TRIPOS>ATOM
      1 O           3.8608    2.0619    1.1757 O.2     1  UNL11      -0.2116
      2 C           2.8137    1.6977    0.5590 C.2     1  UNL11       0.4383
      3 N           1.9239    2.5840    0.1003 N.am    1  UNL11      -0.0356
      4 N           0.8414    2.2029   -0.5365 N.2     1  UNL11      -0.0073
      5 C           0.5420    0.9133   -0.7764 C.2     1  UNL11       0.1193
      6 C          -0.7064    0.5895   -1.4427 C.3     1  UNL11       0.0224
      7 C          -1.8851    0.3528   -0.6223 C.ar    1  UNL11      -0.0231
      8 C          -3.0872    0.0301   -1.1829 C.ar    1  UNL11      -0.0568
      9 C          -4.2226   -0.1641   -0.3795 C.ar    1  UNL11      -0.0614
     10 C          -4.1807   -0.0402    0.9910 C.ar    1  UNL11      -0.0604
     11 C          -2.9622    0.2881    1.5692 C.ar    1  UNL11      -0.0431
     12 C          -1.8604    0.4745    0.7675 C.ar    1  UNL11       0.0445
     13 CL         -0.3133    0.8940    1.4662 Cl      1  UNL11      -0.0832
     14 C           1.4309   -0.0160   -0.3225 C.ar    1  UNL11       0.0192
     15 C           1.2432   -1.3647   -0.5245 C.ar    1  UNL11      -0.0518
     16 C           2.1654   -2.2753   -0.0654 C.ar    1  UNL11      -0.0611
     17 C           3.3076   -1.9137    0.6074 C.ar    1  UNL11      -0.0608
     18 C           3.5167   -0.5751    0.8187 C.ar    1  UNL11      -0.0441
     19 C           2.6012    0.3520    0.3642 C.ar    1  UNL11       0.1004
     20 H           2.1191    3.6228    0.2679 H       1  UNL11       0.4829
     21 H          -0.9810    1.4447   -2.1360 H       1  UNL11       0.0379
     22 H          -0.6041   -0.2707   -2.1740 H       1  UNL11       0.0379
     23 H          -3.2512   -0.0839   -2.2656 H       1  UNL11       0.0621
     24 H          -5.1562   -0.4204   -0.8718 H       1  UNL11       0.0618
     25 H          -5.0736   -0.1947    1.5967 H       1  UNL11       0.0618
     26 H          -2.9009    0.3925    2.6440 H       1  UNL11       0.0632
     27 H           0.3599   -1.6505   -1.0684 H       1  UNL11       0.0624
     28 H           1.9766   -3.3323   -0.2465 H       1  UNL11       0.0618
     29 H           4.0312   -2.6267    0.9688 H       1  UNL11       0.0618
     30 H           4.3859   -0.1830    1.3385 H       1  UNL11       0.0627
@<TRIPOS>BOND
     1     1     2    2
     2     2     3   am
     3     3     4    1
     4     3    20    1
     5     4     5    2
     6     5     6    1
     7     5    14    1
     8     6     7    1
     9     6    21    1
    10     6    22    1
    11     7     8   ar
    12     8     9   ar
    13     8    23    1
    14     9    10   ar
    15     9    24    1
    16    10    11   ar
    17    10    25    1
    18    11    12   ar
    19    11    26    1
    20    12    13    1
    21    12     7   ar
    22    14    15   ar
    23    15    16   ar
    24    15    27    1
    25    16    17   ar
    26    16    28    1
    27    17    18   ar
    28    17    29    1
    29    18    19   ar
    30    18    30    1
    31    19     2    1
    32    19    14   ar
@<TRIPOS>MOLECULE
*****
 30 32 0 0 0
SMALL
GASTEIGER

@<TRIPOS>ATOM
      1 O           3.8608    2.0619    1.1757 O.2     1  UNL11      -0.2116
      2 C           2.8137    1.6977    0.5590 C.2     1  UNL11       0.4383
      3 N           1.9239    2.5840    0.1003 N.am    1  UNL11      -0.0356
      4 N           0.8414    2.2029   -0.5365 N.2     1  UNL11      -0.0073
      5 C           0.5420    0.9133   -0.7764 C.2     1  UNL11       0.1193
      6 C          -0.7064    0.5895   -1.4427 C.3     1  UNL11       0.0224
      7 C          -1.8851    0.3528   -0.6223 C.ar    1  UNL11      -0.0231
      8 C          -2.7292    1.3702   -0.2820 C.ar    1  UNL11      -0.0568
      9 C          -3.8450    1.1311    0.5366 C.ar    1  UNL11      -0.0614
     10 C          -4.1379   -0.1207    1.0292 C.ar    1  UNL11      -0.0604
     11 C          -3.2844   -1.1609    0.6882 C.ar    1  UNL11      -0.0431
     12 C          -2.1966   -0.9090   -0.1145 C.ar    1  UNL11       0.0445
     13 CL         -1.1005   -2.1977   -0.5566 Cl      1  UNL11      -0.0832
     14 C           1.4309   -0.0160   -0.3225 C.ar    1  UNL11       0.0192
     15 C           1.2432   -1.3647   -0.5245 C.ar    1  UNL11      -0.0518
     16 C           2.1654   -2.2753   -0.0654 C.ar    1  UNL11      -0.0611
     17 C           3.3076   -1.9137    0.6074 C.ar    1  UNL11      -0.0608
     18 C           3.5167   -0.5751    0.8187 C.ar    1  UNL11      -0.0441
     19 C           2.6012    0.3520    0.3642 C.ar    1  UNL11       0.1004
     20 H           2.1191    3.6228    0.2679 H       1  UNL11       0.4829
     21 H          -0.9810    1.4447   -2.1360 H       1  UNL11       0.0379
     22 H          -0.6041   -0.2707   -2.1740 H       1  UNL11       0.0379
     23 H          -2.5946    2.4153   -0.6012 H       1  UNL11       0.0621
     24 H          -4.4877    1.9724    0.7790 H       1  UNL11       0.0618
     25 H          -5.0089   -0.2852    1.6635 H       1  UNL11       0.0618
     26 H          -3.4905   -2.1547    1.0620 H       1  UNL11       0.0632
     27 H           0.3599   -1.6505   -1.0684 H       1  UNL11       0.0624
     28 H           1.9766   -3.3323   -0.2465 H       1  UNL11       0.0618
     29 H           4.0312   -2.6267    0.9688 H       1  UNL11       0.0618
     30 H           4.3859   -0.1830    1.3385 H       1  UNL11       0.0627
@<TRIPOS>BOND
     1     1     2    2
     2     2     3   am
     3     3     4    1
     4     3    20    1
     5     4     5    2
     6     5     6    1
     7     5    14    1
     8     6     7    1
     9     6    21    1
    10     6    22    1
    11     7     8   ar
    12     8     9   ar
    13     8    23    1
    14     9    10   ar
    15     9    24    1
    16    10    11   ar
    17    10    25    1
    18    11    12   ar
    19    11    26    1
    20    12    13    1
    21    12     7   ar
    22    14    15   ar
    23    15    16   ar
    24    15    27    1
    25    16    17   ar
    26    16    28    1
    27    17    18   ar
    28    17    29    1
    29    18    19   ar
    30    18    30    1
    31    19     2    1
    32    19    14   ar
@<TRIPOS>MOLECULE
*****
 30 32 0 0 0
SMALL
GASTEIGER

@<TRIPOS>ATOM
      1 O           3.8608    2.0619    1.1757 O.2     1  UNL11      -0.2116
      2 C           2.8137    1.6977    0.5590 C.2     1  UNL11       0.4383
      3 N           1.9239    2.5840    0.1003 N.am    1  UNL11      -0.0356
      4 N           0.8414    2.2029   -0.5365 N.2     1  UNL11      -0.0073
      5 C           0.5420    0.9133   -0.7764 C.2     1  UNL11       0.1193
      6 C          -0.7064    0.5895   -1.4427 C.3     1  UNL11       0.0224
      7 C          -1.8851    0.3528   -0.6223 C.ar    1  UNL11      -0.0231
      8 C          -2.3829    1.3210    0.2013 C.ar    1  UNL11      -0.0568
      9 C          -3.5023    1.0664    1.0103 C.ar    1  UNL11      -0.0614
     10 C          -4.1425   -0.1525    1.0136 C.ar    1  UNL11      -0.0604
     11 C          -3.6424   -1.1426    0.1792 C.ar    1  UNL11      -0.0431
     12 C          -2.5456   -0.8762   -0.6065 C.ar    1  UNL11       0.0445
     13 CL         -1.8896   -2.1050   -1.6636 Cl      1  UNL11      -0.0832
     14 C           1.4309   -0.0160   -0.3225 C.ar    1  UNL11       0.0192
     15 C           1.2432   -1.3647   -0.5245 C.ar    1  UNL11      -0.0518
     16 C           2.1654   -2.2753   -0.0654 C.ar    1  UNL11      -0.0611
     17 C           3.3076   -1.9137    0.6074 C.ar    1  UNL11      -0.0608
     18 C           3.5167   -0.5751    0.8187 C.ar    1  UNL11      -0.0441
     19 C           2.6012    0.3520    0.3642 C.ar    1  UNL11       0.1004
     20 H           2.1191    3.6228    0.2679 H       1  UNL11       0.4829
     21 H          -0.9810    1.4447   -2.1360 H       1  UNL11       0.0379
     22 H          -0.6041   -0.2707   -2.1740 H       1  UNL11       0.0379
     23 H          -1.9516    2.3293    0.2978 H       1  UNL11       0.0621
     24 H          -3.8619    1.8687    1.6481 H       1  UNL11       0.0618
     25 H          -5.0098   -0.3299    1.6494 H       1  UNL11       0.0618
     26 H          -4.1258   -2.1101    0.1623 H       1  UNL11       0.0632
     27 H           0.3599   -1.6505   -1.0684 H       1  UNL11       0.0624
     28 H           1.9766   -3.3323   -0.2465 H       1  UNL11       0.0618
     29 H           4.0312   -2.6267    0.9688 H       1  UNL11       0.0618
     30 H           4.3859   -0.1830    1.3385 H       1  UNL11       0.0627
@<TRIPOS>BOND
     1     1     2    2
     2     2     3   am
     3     3     4    1
     4     3    20    1
     5     4     5    2
     6     5     6    1
     7     5    14    1
     8     6     7    1
     9     6    21    1
    10     6    22    1
    11     7     8   ar
    12     8     9   ar
    13     8    23    1
    14     9    10   ar
    15     9    24    1
    16    10    11   ar
    17    10    25    1
    18    11    12   ar
    19    11    26    1
    20    12    13    1
    21    12     7   ar
    22    14    15   ar
    23    15    16   ar
    24    15    27    1
    25    16    17   ar
    26    16    28    1
    27    17    18   ar
    28    17    29    1
    29    18    19   ar
    30    18    30    1
    31    19     2    1
    32    19    14   ar
@<TRIPOS>MOLECULE
*****
 30 32 0 0 0
SMALL
GASTEIGER

@<TRIPOS>ATOM
      1 O           3.8608    2.0619    1.1757 O.2     1  UNL11      -0.2116
      2 C           2.8137    1.6977    0.5590 C.2     1  UNL11       0.4383
      3 N           1.9239    2.5840    0.1003 N.am    1  UNL11      -0.0356
      4 N           0.8414    2.2029   -0.5365 N.2     1  UNL11      -0.0073
      5 C           0.5420    0.9133   -0.7764 C.2     1  UNL11       0.1193
      6 C          -0.7064    0.5895   -1.4427 C.3     1  UNL11       0.0224
      7 C          -1.8851    0.3528   -0.6223 C.ar    1  UNL11      -0.0231
      8 C          -2.8700   -0.5025   -1.0246 C.ar    1  UNL11      -0.0568
      9 C          -4.0161   -0.6959   -0.2363 C.ar    1  UNL11      -0.0614
     10 C          -4.2007   -0.0428    0.9616 C.ar    1  UNL11      -0.0604
     11 C          -3.2040    0.8290    1.3779 C.ar    1  UNL11      -0.0431
     12 C          -2.0882    1.0063    0.5937 C.ar    1  UNL11       0.0445
     13 CL         -0.8185    2.1019    1.0889 Cl      1  UNL11      -0.0832
     14 C           1.4309   -0.0160   -0.3225 C.ar    1  UNL11       0.0192
     15 C           1.2432   -1.3647   -0.5245 C.ar    1  UNL11      -0.0518
     16 C           2.1654   -2.2753   -0.0654 C.ar    1  UNL11      -0.0611
     17 C           3.3076   -1.9137    0.6074 C.ar    1  UNL11      -0.0608
     18 C           3.5167   -0.5751    0.8187 C.ar    1  UNL11      -0.0441
     19 C           2.6012    0.3520    0.3642 C.ar    1  UNL11       0.1004
     20 H           2.1191    3.6228    0.2679 H       1  UNL11       0.4829
     21 H          -0.9810    1.4447   -2.1360 H       1  UNL11       0.0379
     22 H          -0.6041   -0.2707   -2.1740 H       1  UNL11       0.0379
     23 H          -2.8451   -1.0713   -1.9669 H       1  UNL11       0.0621
     24 H          -4.7716   -1.3873   -0.5982 H       1  UNL11       0.0618
     25 H          -5.0978   -0.2066    1.5584 H       1  UNL11       0.0618
     26 H          -3.3235    1.3559    2.3149 H       1  UNL11       0.0632
     27 H           0.3599   -1.6505   -1.0684 H       1  UNL11       0.0624
     28 H           1.9766   -3.3323   -0.2465 H       1  UNL11       0.0618
     29 H           4.0312   -2.6267    0.9688 H       1  UNL11       0.0618
     30 H           4.3859   -0.1830    1.3385 H       1  UNL11       0.0627
@<TRIPOS>BOND
     1     1     2    2
     2     2     3   am
     3     3     4    1
     4     3    20    1
     5     4     5    2
     6     5     6    1
     7     5    14    1
     8     6     7    1
     9     6    21    1
    10     6    22    1
    11     7     8   ar
    12     8     9   ar
    13     8    23    1
    14     9    10   ar
    15     9    24    1
    16    10    11   ar
    17    10    25    1
    18    11    12   ar
    19    11    26    1
    20    12    13    1
    21    12     7   ar
    22    14    15   ar
    23    15    16   ar
    24    15    27    1
    25    16    17   ar
    26    16    28    1
    27    17    18   ar
    28    17    29    1
    29    18    19   ar
    30    18    30    1
    31    19     2    1
    32    19    14   ar
@<TRIPOS>MOLECULE
*****
 30 32 0 0 0
SMALL
GASTEIGER

@<TRIPOS>ATOM
      1 O           3.8608    2.0619    1.1757 O.2     1  UNL11      -0.2116
      2 C           2.8137    1.6977    0.5590 C.2     1  UNL11       0.4383
      3 N           1.9239    2.5840    0.1003 N.am    1  UNL11      -0.0356
      4 N           0.8414    2.2029   -0.5365 N.2     1  UNL11      -0.0073
      5 C           0.5420    0.9133   -0.7764 C.2     1  UNL11       0.1193
      6 C          -0.7064    0.5895   -1.4427 C.3     1  UNL11       0.0224
      7 C          -1.6642   -0.2530   -0.7418 C.ar    1  UNL11      -0.0231
      8 C          -1.6418   -1.6118   -0.8703 C.ar    1  UNL11      -0.0568
      9 C          -2.5928   -2.4087   -0.2123 C.ar    1  UNL11      -0.0614
     10 C          -3.5792   -1.8681    0.5816 C.ar    1  UNL11      -0.0604
     11 C          -3.6092   -0.4870    0.7173 C.ar    1  UNL11      -0.0431
     12 C          -2.6702    0.2782    0.0661 C.ar    1  UNL11       0.0445
     13 CL         -2.6858    2.0205    0.2135 Cl      1  UNL11      -0.0832
     14 C           1.4309   -0.0160   -0.3225 C.ar    1  UNL11       0.0192
     15 C           1.2432   -1.3647   -0.5245 C.ar    1  UNL11      -0.0518
     16 C           2.1654   -2.2753   -0.0654 C.ar    1  UNL11      -0.0611
     17 C           3.3076   -1.9137    0.6074 C.ar    1  UNL11      -0.0608
     18 C           3.5167   -0.5751    0.8187 C.ar    1  UNL11      -0.0441
     19 C           2.6012    0.3520    0.3642 C.ar    1  UNL11       0.1004
     20 H           2.1191    3.6228    0.2679 H       1  UNL11       0.4829
     21 H          -1.2567    1.5547   -1.6729 H       1  UNL11       0.0379
     22 H          -0.5524    0.1634   -2.4819 H       1  UNL11       0.0379
     23 H          -0.9128   -2.1605   -1.4863 H       1  UNL11       0.0621
     24 H          -2.5334   -3.4851   -0.3446 H       1  UNL11       0.0618
     25 H          -4.3082   -2.5042    1.0834 H       1  UNL11       0.0618
     26 H          -4.3740   -0.0355    1.3347 H       1  UNL11       0.0632
     27 H           0.3599   -1.6505   -1.0684 H       1  UNL11       0.0624
     28 H           1.9766   -3.3323   -0.2465 H       1  UNL11       0.0618
     29 H           4.0312   -2.6267    0.9688 H       1  UNL11       0.0618
     30 H           4.3859   -0.1830    1.3385 H       1  UNL11       0.0627
@<TRIPOS>BOND
     1     1     2    2
     2     2     3   am
     3     3     4    1
     4     3    20    1
     5     4     5    2
     6     5     6    1
     7     5    14    1
     8     6     7    1
     9     6    21    1
    10     6    22    1
    11     7     8   ar
    12     8     9   ar
    13     8    23    1
    14     9    10   ar
    15     9    24    1
    16    10    11   ar
    17    10    25    1
    18    11    12   ar
    19    11    26    1
    20    12    13    1
    21    12     7   ar
    22    14    15   ar
    23    15    16   ar
    24    15    27    1
    25    16    17   ar
    26    16    28    1
    27    17    18   ar
    28    17    29    1
    29    18    19   ar
    30    18    30    1
    31    19     2    1
    32    19    14   ar
@<TRIPOS>MOLECULE
*****
 30 32 0 0 0
SMALL
GASTEIGER

@<TRIPOS>ATOM
      1 O           3.8608    2.0619    1.1757 O.2     1  UNL11      -0.2116
      2 C           2.8137    1.6977    0.5590 C.2     1  UNL11       0.4383
      3 N           1.9239    2.5840    0.1003 N.am    1  UNL11      -0.0356
      4 N           0.8414    2.2029   -0.5365 N.2     1  UNL11      -0.0073
      5 C           0.5420    0.9133   -0.7764 C.2     1  UNL11       0.1193
      6 C          -0.7064    0.5895   -1.4427 C.3     1  UNL11       0.0224
      7 C          -1.6642   -0.2530   -0.7418 C.ar    1  UNL11      -0.0231
      8 C          -2.0664   -1.4512   -1.2574 C.ar    1  UNL11      -0.0568
      9 C          -3.0153   -2.2378   -0.5842 C.ar    1  UNL11      -0.0614
     10 C          -3.5783   -1.8459    0.6095 C.ar    1  UNL11      -0.0604
     11 C          -3.1751   -0.6285    1.1405 C.ar    1  UNL11      -0.0431
     12 C          -2.2447    0.1290    0.4682 C.ar    1  UNL11       0.0445
     13 CL         -1.7212    1.6693    1.1094 Cl      1  UNL11      -0.0832
     14 C           1.4309   -0.0160   -0.3225 C.ar    1  UNL11       0.0192
     15 C           1.2432   -1.3647   -0.5245 C.ar    1  UNL11      -0.0518
     16 C           2.1654   -2.2753   -0.0654 C.ar    1  UNL11      -0.0611
     17 C           3.3076   -1.9137    0.6074 C.ar    1  UNL11      -0.0608
     18 C           3.5167   -0.5751    0.8187 C.ar    1  UNL11      -0.0441
     19 C           2.6012    0.3520    0.3642 C.ar    1  UNL11       0.1004
     20 H           2.1191    3.6228    0.2679 H       1  UNL11       0.4829
     21 H          -1.2567    1.5547   -1.6729 H       1  UNL11       0.0379
     22 H          -0.5524    0.1634   -2.4819 H       1  UNL11       0.0379
     23 H          -1.7003   -1.8664   -2.2091 H       1  UNL11       0.0621
     24 H          -3.3028   -3.1838   -1.0338 H       1  UNL11       0.0618
     25 H          -4.3136   -2.4710    1.1159 H       1  UNL11       0.0618
     26 H          -3.6019   -0.2957    2.0770 H       1  UNL11       0.0632
     27 H           0.3599   -1.6505   -1.0684 H       1  UNL11       0.0624
     28 H           1.9766   -3.3323   -0.2465 H       1  UNL11       0.0618
     29 H           4.0312   -2.6267    0.9688 H       1  UNL11       0.0618
     30 H           4.3859   -0.1830    1.3385 H       1  UNL11       0.0627
@<TRIPOS>BOND
     1     1     2    2
     2     2     3   am
     3     3     4    1
     4     3    20    1
     5     4     5    2
     6     5     6    1
     7     5    14    1
     8     6     7    1
     9     6    21    1
    10     6    22    1
    11     7     8   ar
    12     8     9   ar
    13     8    23    1
    14     9    10   ar
    15     9    24    1
    16    10    11   ar
    17    10    25    1
    18    11    12   ar
    19    11    26    1
    20    12    13    1
    21    12     7   ar
    22    14    15   ar
    23    15    16   ar
    24    15    27    1
    25    16    17   ar
    26    16    28    1
    27    17    18   ar
    28    17    29    1
    29    18    19   ar
    30    18    30    1
    31    19     2    1
    32    19    14   ar
@<TRIPOS>MOLECULE
*****
 30 32 0 0 0
SMALL
GASTEIGER

@<TRIPOS>ATOM
      1 O           3.8608    2.0619    1.1757 O.2     1  UNL11      -0.2116
      2 C           2.8137    1.6977    0.5590 C.2     1  UNL11       0.4383
      3 N           1.9239    2.5840    0.1003 N.am    1  UNL11      -0.0356
      4 N           0.8414    2.2029   -0.5365 N.2     1  UNL11      -0.0073
      5 C           0.5420    0.9133   -0.7764 C.2     1  UNL11       0.1193
      6 C          -0.7064    0.5895   -1.4427 C.3     1  UNL11       0.0224
      7 C          -0.6472   -0.1228   -2.7106 C.ar    1  UNL11      -0.0231
      8 C          -1.2352   -1.3449   -2.8664 C.ar    1  UNL11      -0.0568
      9 C          -1.1420   -2.0337   -4.0868 C.ar    1  UNL11      -0.0614
     10 C          -0.4635   -1.5194   -5.1688 C.ar    1  UNL11      -0.0604
     11 C           0.1377   -0.2773   -5.0186 C.ar    1  UNL11      -0.0431
     12 C           0.0363    0.3834   -3.8167 C.ar    1  UNL11       0.0445
     13 CL          0.7875    1.9469   -3.5956 Cl      1  UNL11      -0.0832
     14 C           1.4309   -0.0160   -0.3225 C.ar    1  UNL11       0.0192
     15 C           1.2432   -1.3647   -0.5245 C.ar    1  UNL11      -0.0518
     16 C           2.1654   -2.2753   -0.0654 C.ar    1  UNL11      -0.0611
     17 C           3.3076   -1.9137    0.6074 C.ar    1  UNL11      -0.0608
     18 C           3.5167   -0.5751    0.8187 C.ar    1  UNL11      -0.0441
     19 C           2.6012    0.3520    0.3642 C.ar    1  UNL11       0.1004
     20 H           2.1191    3.6228    0.2679 H       1  UNL11       0.4829
     21 H          -1.3284   -0.0620   -0.7527 H       1  UNL11       0.0379
     22 H          -1.3818    1.4907   -1.5729 H       1  UNL11       0.0379
     23 H          -1.7927   -1.8660   -2.0729 H       1  UNL11       0.0621
     24 H          -1.6272   -3.0024   -4.1624 H       1  UNL11       0.0618
     25 H          -0.4026   -2.0702   -6.1073 H       1  UNL11       0.0618
     26 H           0.6778    0.1501   -5.8526 H       1  UNL11       0.0632
     27 H           0.3599   -1.6505   -1.0684 H       1  UNL11       0.0624
     28 H           1.9766   -3.3323   -0.2465 H       1  UNL11       0.0618
     29 H           4.0312   -2.6267    0.9688 H       1  UNL11       0.0618
     30 H           4.3859   -0.1830    1.3385 H       1  UNL11       0.0627
@<TRIPOS>BOND
     1     1     2    2
     2     2     3   am
     3     3     4    1
     4     3    20    1
     5     4     5    2
     6     5     6    1
     7     5    14    1
     8     6     7    1
     9     6    21    1
    10     6    22    1
    11     7     8   ar
    12     8     9   ar
    13     8    23    1
    14     9    10   ar
    15     9    24    1
    16    10    11   ar
    17    10    25    1
    18    11    12   ar
    19    11    26    1
    20    12    13    1
    21    12     7   ar
    22    14    15   ar
    23    15    16   ar
    24    15    27    1
    25    16    17   ar
    26    16    28    1
    27    17    18   ar
    28    17    29    1
    29    18    19   ar
    30    18    30    1
    31    19     2    1
    32    19    14   ar
@<TRIPOS>MOLECULE
*****
 30 32 0 0 0
SMALL
GASTEIGER

@<TRIPOS>ATOM
      1 O           3.8608    2.0619    1.1757 O.2     1  UNL11      -0.2116
      2 C           2.8137    1.6977    0.5590 C.2     1  UNL11       0.4383
      3 N           1.9239    2.5840    0.1003 N.am    1  UNL11      -0.0356
      4 N           0.8414    2.2029   -0.5365 N.2     1  UNL11      -0.0073
      5 C           0.5420    0.9133   -0.7764 C.2     1  UNL11       0.1193
      6 C          -0.7064    0.5895   -1.4427 C.3     1  UNL11       0.0224
      7 C          -1.3479   -0.6785   -1.1277 C.ar    1  UNL11      -0.0231
      8 C          -2.6057   -0.7258   -0.5995 C.ar    1  UNL11      -0.0568
      9 C          -3.1984   -1.9560   -0.2714 C.ar    1  UNL11      -0.0614
     10 C          -2.5509   -3.1559   -0.4626 C.ar    1  UNL11      -0.0604
     11 C          -1.2713   -3.1166   -0.9990 C.ar    1  UNL11      -0.0431
     12 C          -0.7061   -1.9032   -1.3147 C.ar    1  UNL11       0.0445
     13 CL          0.9062   -1.8214   -1.9867 Cl      1  UNL11      -0.0832
     14 C           1.4309   -0.0160   -0.3225 C.ar    1  UNL11       0.0192
     15 C           1.2432   -1.3647   -0.5245 C.ar    1  UNL11      -0.0518
     16 C           2.1654   -2.2753   -0.0654 C.ar    1  UNL11      -0.0611
     17 C           3.3076   -1.9137    0.6074 C.ar    1  UNL11      -0.0608
     18 C           3.5167   -0.5751    0.8187 C.ar    1  UNL11      -0.0441
     19 C           2.6012    0.3520    0.3642 C.ar    1  UNL11       0.1004
     20 H           2.1191    3.6228    0.2679 H       1  UNL11       0.4829
     21 H          -1.4701    1.3908   -1.1933 H       1  UNL11       0.0379
     22 H          -0.6399    0.6833   -2.5705 H       1  UNL11       0.0379
     23 H          -3.2188    0.1637   -0.3875 H       1  UNL11       0.0621
     24 H          -4.2013   -1.9423    0.1454 H       1  UNL11       0.0618
     25 H          -3.0285   -4.1000   -0.2010 H       1  UNL11       0.0618
     26 H          -0.7391   -4.0446   -1.1592 H       1  UNL11       0.0632
     27 H           0.3599   -1.6505   -1.0684 H       1  UNL11       0.0624
     28 H           1.9766   -3.3323   -0.2465 H       1  UNL11       0.0618
     29 H           4.0312   -2.6267    0.9688 H       1  UNL11       0.0618
     30 H           4.3859   -0.1830    1.3385 H       1  UNL11       0.0627
@<TRIPOS>BOND
     1     1     2    2
     2     2     3   am
     3     3     4    1
     4     3    20    1
     5     4     5    2
     6     5     6    1
     7     5    14    1
     8     6     7    1
     9     6    21    1
    10     6    22    1
    11     7     8   ar
    12     8     9   ar
    13     8    23    1
    14     9    10   ar
    15     9    24    1
    16    10    11   ar
    17    10    25    1
    18    11    12   ar
    19    11    26    1
    20    12    13    1
    21    12     7   ar
    22    14    15   ar
    23    15    16   ar
    24    15    27    1
    25    16    17   ar
    26    16    28    1
    27    17    18   ar
    28    17    29    1
    29    18    19   ar
    30    18    30    1
    31    19     2    1
    32    19    14   ar
@<TRIPOS>MOLECULE
*****
 30 32 0 0 0
SMALL
GASTEIGER

@<TRIPOS>ATOM
      1 O           3.8608    2.0619    1.1757 O.2     1  UNL11      -0.2116
      2 C           2.8137    1.6977    0.5590 C.2     1  UNL11       0.4383
      3 N           1.9239    2.5840    0.1003 N.am    1  UNL11      -0.0356
      4 N           0.8414    2.2029   -0.5365 N.2     1  UNL11      -0.0073
      5 C           0.5420    0.9133   -0.7764 C.2     1  UNL11       0.1193
      6 C          -0.7064    0.5895   -1.4427 C.3     1  UNL11       0.0224
      7 C          -0.7107    0.5031   -2.8956 C.ar    1  UNL11      -0.0231
      8 C          -1.8528    0.2168   -3.5863 C.ar    1  UNL11      -0.0568
      9 C          -1.8339    0.1056   -4.9862 C.ar    1  UNL11      -0.0614
     10 C          -0.6812    0.2765   -5.7196 C.ar    1  UNL11      -0.0604
     11 C           0.4847    0.5675   -5.0248 C.ar    1  UNL11      -0.0431
     12 C           0.4480    0.6729   -3.6541 C.ar    1  UNL11       0.0445
     13 CL          1.9014    1.0331   -2.7510 Cl      1  UNL11      -0.0832
     14 C           1.4309   -0.0160   -0.3225 C.ar    1  UNL11       0.0192
     15 C           1.2432   -1.3647   -0.5245 C.ar    1  UNL11      -0.0518
     16 C           2.1654   -2.2753   -0.0654 C.ar    1  UNL11      -0.0611
     17 C           3.3076   -1.9137    0.6074 C.ar    1  UNL11      -0.0608
     18 C           3.5167   -0.5751    0.8187 C.ar    1  UNL11      -0.0441
     19 C           2.6012    0.3520    0.3642 C.ar    1  UNL11       0.1004
     20 H           2.1191    3.6228    0.2679 H       1  UNL11       0.4829
     21 H          -1.0639   -0.4221   -1.0734 H       1  UNL11       0.0379
     22 H          -1.5618    1.2619   -1.1244 H       1  UNL11       0.0379
     23 H          -2.8322    0.0454   -3.1136 H       1  UNL11       0.0621
     24 H          -2.7680   -0.1226   -5.4910 H       1  UNL11       0.0618
     25 H          -0.6877    0.1856   -6.8057 H       1  UNL11       0.0618
     26 H           1.4050    0.7061   -5.5760 H       1  UNL11       0.0632
     27 H           0.3599   -1.6505   -1.0684 H       1  UNL11       0.0624
     28 H           1.9766   -3.3323   -0.2465 H       1  UNL11       0.0618
     29 H           4.0312   -2.6267    0.9688 H       1  UNL11       0.0618
     30 H           4.3859   -0.1830    1.3385 H       1  UNL11       0.0627
@<TRIPOS>BOND
     1     1     2    2
     2     2     3   am
     3     3     4    1
     4     3    20    1
     5     4     5    2
     6     5     6    1
     7     5    14    1
     8     6     7    1
     9     6    21    1
    10     6    22    1
    11     7     8   ar
    12     8     9   ar
    13     8    23    1
    14     9    10   ar
    15     9    24    1
    16    10    11   ar
    17    10    25    1
    18    11    12   ar
    19    11    26    1
    20    12    13    1
    21    12     7   ar
    22    14    15   ar
    23    15    16   ar
    24    15    27    1
    25    16    17   ar
    26    16    28    1
    27    17    18   ar
    28    17    29    1
    29    18    19   ar
    30    18    30    1
    31    19     2    1
    32    19    14   ar
@<TRIPOS>MOLECULE
*****
 30 32 0 0 0
SMALL
GASTEIGER

@<TRIPOS>ATOM
      1 O           3.8608    2.0619    1.1757 O.2     1  UNL11      -0.2116
      2 C           2.8137    1.6977    0.5590 C.2     1  UNL11       0.4383
      3 N           1.9239    2.5840    0.1003 N.am    1  UNL11      -0.0356
      4 N           0.8414    2.2029   -0.5365 N.2     1  UNL11      -0.0073
      5 C           0.5420    0.9133   -0.7764 C.2     1  UNL11       0.1193
      6 C          -0.7064    0.5895   -1.4427 C.3     1  UNL11       0.0224
      7 C          -0.7107    0.5031   -2.8956 C.ar    1  UNL11      -0.0231
      8 C          -1.8246    0.8117   -3.6218 C.ar    1  UNL11      -0.0568
      9 C          -1.8225    0.6927   -5.0212 C.ar    1  UNL11      -0.0614
     10 C          -0.7151    0.2654   -5.7188 C.ar    1  UNL11      -0.0604
     11 C           0.4218   -0.0508   -4.9879 C.ar    1  UNL11      -0.0431
     12 C           0.4022    0.0716   -3.6182 C.ar    1  UNL11       0.0445
     13 CL          1.8170   -0.3244   -2.6699 Cl      1  UNL11      -0.0832
     14 C           1.4309   -0.0160   -0.3225 C.ar    1  UNL11       0.0192
     15 C           1.2432   -1.3647   -0.5245 C.ar    1  UNL11      -0.0518
     16 C           2.1654   -2.2753   -0.0654 C.ar    1  UNL11      -0.0611
     17 C           3.3076   -1.9137    0.6074 C.ar    1  UNL11      -0.0608
     18 C           3.5167   -0.5751    0.8187 C.ar    1  UNL11      -0.0441
     19 C           2.6012    0.3520    0.3642 C.ar    1  UNL11       0.1004
     20 H           2.1191    3.6228    0.2679 H       1  UNL11       0.4829
     21 H          -1.0639   -0.4221   -1.0734 H       1  UNL11       0.0379
     22 H          -1.5618    1.2619   -1.1244 H       1  UNL11       0.0379
     23 H          -2.7742    1.1506   -3.1795 H       1  UNL11       0.0621
     24 H          -2.7324    0.9509   -5.5550 H       1  UNL11       0.0618
     25 H          -0.7341    0.1795   -6.8052 H       1  UNL11       0.0618
     26 H           1.3060   -0.3898   -5.5105 H       1  UNL11       0.0632
     27 H           0.3599   -1.6505   -1.0684 H       1  UNL11       0.0624
     28 H           1.9766   -3.3323   -0.2465 H       1  UNL11       0.0618
     29 H           4.0312   -2.6267    0.9688 H       1  UNL11       0.0618
     30 H           4.3859   -0.1830    1.3385 H       1  UNL11       0.0627
@<TRIPOS>BOND
     1     1     2    2
     2     2     3   am
     3     3     4    1
     4     3    20    1
     5     4     5    2
     6     5     6    1
     7     5    14    1
     8     6     7    1
     9     6    21    1
    10     6    22    1
    11     7     8   ar
    12     8     9   ar
    13     8    23    1
    14     9    10   ar
    15     9    24    1
    16    10    11   ar
    17    10    25    1
    18    11    12   ar
    19    11    26    1
    20    12    13    1
    21    12     7   ar
    22    14    15   ar
    23    15    16   ar
    24    15    27    1
    25    16    17   ar
    26    16    28    1
    27    17    18   ar
    28    17    29    1
    29    18    19   ar
    30    18    30    1
    31    19     2    1
    32    19    14   ar
@<TRIPOS>MOLECULE
*****
 30 32 0 0 0
SMALL
GASTEIGER

@<TRIPOS>ATOM
      1 O           3.8608    2.0619    1.1757 O.2     1  UNL11      -0.2116
      2 C           2.8137    1.6977    0.5590 C.2     1  UNL11       0.4383
      3 N           1.9239    2.5840    0.1003 N.am    1  UNL11      -0.0356
      4 N           0.8414    2.2029   -0.5365 N.2     1  UNL11      -0.0073
      5 C           0.5420    0.9133   -0.7764 C.2     1  UNL11       0.1193
      6 C          -0.7064    0.5895   -1.4427 C.3     1  UNL11       0.0224
      7 C          -0.7544   -0.6025   -2.2765 C.ar    1  UNL11      -0.0231
      8 C          -1.9087   -1.3148   -2.4310 C.ar    1  UNL11      -0.0568
      9 C          -1.9309   -2.4807   -3.2135 C.ar    1  UNL11      -0.0614
     10 C          -0.8080   -2.9561   -3.8529 C.ar    1  UNL11      -0.0604
     11 C           0.3700   -2.2379   -3.7006 C.ar    1  UNL11      -0.0431
     12 C           0.3738   -1.0982   -2.9309 C.ar    1  UNL11       0.0445
     13 CL          1.8435   -0.1754   -2.7161 Cl      1  UNL11      -0.0832
     14 C           1.4309   -0.0160   -0.3225 C.ar    1  UNL11       0.0192
     15 C           1.2432   -1.3647   -0.5245 C.ar    1  UNL11      -0.0518
     16 C           2.1654   -2.2753   -0.0654 C.ar    1  UNL11      -0.0611
     17 C           3.3076   -1.9137    0.6074 C.ar    1  UNL11      -0.0608
     18 C           3.5167   -0.5751    0.8187 C.ar    1  UNL11      -0.0441
     19 C           2.6012    0.3520    0.3642 C.ar    1  UNL11       0.1004
     20 H           2.1191    3.6228    0.2679 H       1  UNL11       0.4829
     21 H          -1.5120    0.4474   -0.6564 H       1  UNL11       0.0379
     22 H          -1.1239    1.4578   -2.0401 H       1  UNL11       0.0379
     23 H          -2.8667   -1.0450   -1.9605 H       1  UNL11       0.0621
     24 H          -2.8733   -3.0125   -3.3072 H       1  UNL11       0.0618
     25 H          -0.8464   -3.8635   -4.4555 H       1  UNL11       0.0618
     26 H           1.2676   -2.5891   -4.1915 H       1  UNL11       0.0632
     27 H           0.3599   -1.6505   -1.0684 H       1  UNL11       0.0624
     28 H           1.9766   -3.3323   -0.2465 H       1  UNL11       0.0618
     29 H           4.0312   -2.6267    0.9688 H       1  UNL11       0.0618
     30 H           4.3859   -0.1830    1.3385 H       1  UNL11       0.0627
@<TRIPOS>BOND
     1     1     2    2
     2     2     3   am
     3     3     4    1
     4     3    20    1
     5     4     5    2
     6     5     6    1
     7     5    14    1
     8     6     7    1
     9     6    21    1
    10     6    22    1
    11     7     8   ar
    12     8     9   ar
    13     8    23    1
    14     9    10   ar
    15     9    24    1
    16    10    11   ar
    17    10    25    1
    18    11    12   ar
    19    11    26    1
    20    12    13    1
    21    12     7   ar
    22    14    15   ar
    23    15    16   ar
    24    15    27    1
    25    16    17   ar
    26    16    28    1
    27    17    18   ar
    28    17    29    1
    29    18    19   ar
    30    18    30    1
    31    19     2    1
    32    19    14   ar
