@<TRIPOS>MOLECULE
*****
 32 34 0 0 0
SMALL
GASTEIGER

@<TRIPOS>ATOM
      1 N          -0.0229    3.0825    0.4710 N.pl3   1  UNL11      -0.3465
      2 C          -0.9419    2.0045    0.4458 C.2     1  UNL11       0.1905
      3 C          -0.6602    0.8566   -0.2640 C.2     1  UNL11       0.0811
      4 N           0.5345    0.6772   -0.9985 N.pl3   1  UNL11      -0.3120
      5 C           1.7142    0.1160   -0.4821 C.ar    1  UNL11       0.0314
      6 C           2.6118   -0.5917   -1.2516 C.ar    1  UNL11      -0.0405
      7 C           3.7677   -1.1235   -0.6706 C.ar    1  UNL11      -0.0600
      8 C           4.0298   -0.9533    0.6660 C.ar    1  UNL11      -0.0616
      9 C           3.1388   -0.2491    1.4373 C.ar    1  UNL11      -0.0600
     10 C           2.0135    0.2629    0.8480 C.ar    1  UNL11      -0.0405
     11 C          -1.5953   -0.1604   -0.2508 C.ar    1  UNL11       0.0938
     12 C          -1.3962   -1.3411   -0.9317 C.ar    1  UNL11      -0.0440
     13 C          -2.3458   -2.3402   -0.9019 C.ar    1  UNL11      -0.0606
     14 C          -3.5029   -2.1189   -0.1675 C.ar    1  UNL11      -0.0531
     15 C          -3.7287   -0.9492    0.5226 C.ar    1  UNL11       0.0348
     16 C          -2.7504    0.0427    0.4738 C.ar    1  UNL11       0.2757
     17 O          -2.9857    1.1506    1.1390 O.3     1  UNL11      -0.5167
     18 C          -2.1196    2.1293    1.1446 C.2     1  UNL11       0.5043
     19 O          -2.3998    3.1658    1.7995 O.2     1  UNL11      -0.1891
     20 H           0.3231    3.5205    1.3503 H       1  UNL11       0.1427
     21 H           0.3284    3.4605   -0.4519 H       1  UNL11       0.1427
     22 H           0.5149    0.9911   -1.9919 H       1  UNL11       0.1522
     23 H           2.4262   -0.7394   -2.3108 H       1  UNL11       0.0636
     24 H           4.4746   -1.6768   -1.2606 H       1  UNL11       0.0618
     25 H           4.9215   -1.3580    1.1372 H       1  UNL11       0.0618
     26 H           3.3342   -0.1065    2.4990 H       1  UNL11       0.0618
     27 H           1.3270    0.8169    1.4896 H       1  UNL11       0.0636
     28 H          -0.5012   -1.5332   -1.5100 H       1  UNL11       0.0627
     29 H          -2.2466   -3.2850   -1.4143 H       1  UNL11       0.0618
     30 H          -4.2618   -2.9008   -0.1357 H       1  UNL11       0.0620
     31 H          -4.6412   -0.7953    1.0918 H       1  UNL11       0.0709
     32 H          -3.7867    1.2406    1.6168 H       1  UNL11       0.5656
@<TRIPOS>BOND
     1     1     2    1
     2     1    20    1
     3     1    21    1
     4     2     3    2
     5     3     4    1
     6     3    11    1
     7     4     5    1
     8     4    22    1
     9     5     6   ar
    10     6     7   ar
    11     6    23    1
    12     7     8   ar
    13     7    24    1
    14     8     9   ar
    15     8    25    1
    16     9    10   ar
    17     9    26    1
    18    10     5   ar
    19    10    27    1
    20    11    12   ar
    21    12    13   ar
    22    12    28    1
    23    13    14   ar
    24    13    29    1
    25    14    15   ar
    26    14    30    1
    27    15    16   ar
    28    15    31    1
    29    16    17    1
    30    16    11   ar
    31    17    18    1
    32    18    19    2
    33    18     2    1
    34    17    32    1
@<TRIPOS>MOLECULE
*****
 32 34 0 0 0
SMALL
GASTEIGER

@<TRIPOS>ATOM
      1 N          -0.0229    3.0825    0.4710 N.pl3   1  UNL11      -0.3465
      2 C          -0.9419    2.0045    0.4458 C.2     1  UNL11       0.1905
      3 C          -0.6602    0.8566   -0.2640 C.2     1  UNL11       0.0811
      4 N           0.5345    0.6772   -0.9985 N.pl3   1  UNL11      -0.3120
      5 C           0.7020    1.0225   -2.3498 C.ar    1  UNL11       0.0314
      6 C           1.9103    1.4157   -2.8829 C.ar    1  UNL11      -0.0405
      7 C           2.0047    1.7456   -4.2390 C.ar    1  UNL11      -0.0600
      8 C           0.9060    1.6853   -5.0595 C.ar    1  UNL11      -0.0616
      9 C          -0.3003    1.2943   -4.5334 C.ar    1  UNL11      -0.0600
     10 C          -0.3702    0.9758   -3.2033 C.ar    1  UNL11      -0.0405
     11 C          -1.5953   -0.1604   -0.2508 C.ar    1  UNL11       0.0938
     12 C          -1.3962   -1.3411   -0.9317 C.ar    1  UNL11      -0.0440
     13 C          -2.3458   -2.3402   -0.9019 C.ar    1  UNL11      -0.0606
     14 C          -3.5029   -2.1189   -0.1675 C.ar    1  UNL11      -0.0531
     15 C          -3.7287   -0.9492    0.5226 C.ar    1  UNL11       0.0348
     16 C          -2.7504    0.0427    0.4738 C.ar    1  UNL11       0.2757
     17 O          -2.9857    1.1506    1.1390 O.3     1  UNL11      -0.5167
     18 C          -2.1196    2.1293    1.1446 C.2     1  UNL11       0.5043
     19 O          -2.3998    3.1658    1.7995 O.2     1  UNL11      -0.1891
     20 H           0.3231    3.5205    1.3503 H       1  UNL11       0.1427
     21 H           0.3284    3.4605   -0.4519 H       1  UNL11       0.1427
     22 H           1.3345    0.2571   -0.4795 H       1  UNL11       0.1522
     23 H           2.7931    1.4710   -2.2539 H       1  UNL11       0.0636
     24 H           2.9413    2.0533   -4.6656 H       1  UNL11       0.0618
     25 H           0.9574    1.9372   -6.1154 H       1  UNL11       0.0618
     26 H          -1.1800    1.2420   -5.1730 H       1  UNL11       0.0618
     27 H          -1.3436    0.6692   -2.8181 H       1  UNL11       0.0636
     28 H          -0.5012   -1.5332   -1.5100 H       1  UNL11       0.0627
     29 H          -2.2466   -3.2850   -1.4143 H       1  UNL11       0.0618
     30 H          -4.2618   -2.9008   -0.1357 H       1  UNL11       0.0620
     31 H          -4.6412   -0.7953    1.0918 H       1  UNL11       0.0709
     32 H          -3.7867    1.2406    1.6168 H       1  UNL11       0.5656
@<TRIPOS>BOND
     1     1     2    1
     2     1    20    1
     3     1    21    1
     4     2     3    2
     5     3     4    1
     6     3    11    1
     7     4     5    1
     8     4    22    1
     9     5     6   ar
    10     6     7   ar
    11     6    23    1
    12     7     8   ar
    13     7    24    1
    14     8     9   ar
    15     8    25    1
    16     9    10   ar
    17     9    26    1
    18    10     5   ar
    19    10    27    1
    20    11    12   ar
    21    12    13   ar
    22    12    28    1
    23    13    14   ar
    24    13    29    1
    25    14    15   ar
    26    14    30    1
    27    15    16   ar
    28    15    31    1
    29    16    17    1
    30    16    11   ar
    31    17    18    1
    32    18    19    2
    33    18     2    1
    34    17    32    1
@<TRIPOS>MOLECULE
*****
 32 34 0 0 0
SMALL
GASTEIGER

@<TRIPOS>ATOM
      1 N          -0.0229    3.0825    0.4710 N.pl3   1  UNL11      -0.3465
      2 C          -0.9419    2.0045    0.4458 C.2     1  UNL11       0.1905
      3 C          -0.6602    0.8566   -0.2640 C.2     1  UNL11       0.0811
      4 N           0.5345    0.6772   -0.9985 N.pl3   1  UNL11      -0.3120
      5 C           0.8501   -0.4707   -1.7443 C.ar    1  UNL11       0.0314
      6 C           1.6357   -0.4417   -2.8760 C.ar    1  UNL11      -0.0405
      7 C           1.9098   -1.6246   -3.5703 C.ar    1  UNL11      -0.0600
      8 C           1.4065   -2.8280   -3.1430 C.ar    1  UNL11      -0.0616
      9 C           0.6232   -2.8626   -2.0161 C.ar    1  UNL11      -0.0600
     10 C           0.3675   -1.6927   -1.3516 C.ar    1  UNL11      -0.0405
     11 C          -1.5953   -0.1604   -0.2508 C.ar    1  UNL11       0.0938
     12 C          -1.3962   -1.3411   -0.9317 C.ar    1  UNL11      -0.0440
     13 C          -2.3458   -2.3402   -0.9019 C.ar    1  UNL11      -0.0606
     14 C          -3.5029   -2.1189   -0.1675 C.ar    1  UNL11      -0.0531
     15 C          -3.7287   -0.9492    0.5226 C.ar    1  UNL11       0.0348
     16 C          -2.7504    0.0427    0.4738 C.ar    1  UNL11       0.2757
     17 O          -2.9857    1.1506    1.1390 O.3     1  UNL11      -0.5167
     18 C          -2.1196    2.1293    1.1446 C.2     1  UNL11       0.5043
     19 O          -2.3998    3.1658    1.7995 O.2     1  UNL11      -0.1891
     20 H           0.3231    3.5205    1.3503 H       1  UNL11       0.1427
     21 H           0.3284    3.4605   -0.4519 H       1  UNL11       0.1427
     22 H           1.2145    1.4662   -0.9699 H       1  UNL11       0.1522
     23 H           2.0449    0.4980   -3.2332 H       1  UNL11       0.0636
     24 H           2.5209   -1.6142   -4.4536 H       1  UNL11       0.0618
     25 H           1.6072   -3.7585   -3.6674 H       1  UNL11       0.0618
     26 H           0.2175   -3.8104   -1.6658 H       1  UNL11       0.0618
     27 H          -0.2582   -1.7559   -0.4604 H       1  UNL11       0.0636
     28 H          -0.5012   -1.5332   -1.5100 H       1  UNL11       0.0627
     29 H          -2.2466   -3.2850   -1.4143 H       1  UNL11       0.0618
     30 H          -4.2618   -2.9008   -0.1357 H       1  UNL11       0.0620
     31 H          -4.6412   -0.7953    1.0918 H       1  UNL11       0.0709
     32 H          -3.7867    1.2406    1.6168 H       1  UNL11       0.5656
@<TRIPOS>BOND
     1     1     2    1
     2     1    20    1
     3     1    21    1
     4     2     3    2
     5     3     4    1
     6     3    11    1
     7     4     5    1
     8     4    22    1
     9     5     6   ar
    10     6     7   ar
    11     6    23    1
    12     7     8   ar
    13     7    24    1
    14     8     9   ar
    15     8    25    1
    16     9    10   ar
    17     9    26    1
    18    10     5   ar
    19    10    27    1
    20    11    12   ar
    21    12    13   ar
    22    12    28    1
    23    13    14   ar
    24    13    29    1
    25    14    15   ar
    26    14    30    1
    27    15    16   ar
    28    15    31    1
    29    16    17    1
    30    16    11   ar
    31    17    18    1
    32    18    19    2
    33    18     2    1
    34    17    32    1
@<TRIPOS>MOLECULE
*****
 32 34 0 0 0
SMALL
GASTEIGER

@<TRIPOS>ATOM
      1 N          -0.0229    3.0825    0.4710 N.pl3   1  UNL11      -0.3465
      2 C          -0.9419    2.0045    0.4458 C.2     1  UNL11       0.1905
      3 C          -0.6602    0.8566   -0.2640 C.2     1  UNL11       0.0811
      4 N           0.5345    0.6772   -0.9985 N.pl3   1  UNL11      -0.3120
      5 C           1.8249    0.6952   -0.4435 C.ar    1  UNL11       0.0314
      6 C           2.8765   -0.0316   -0.9578 C.ar    1  UNL11      -0.0405
      7 C           4.1364    0.0338   -0.3536 C.ar    1  UNL11      -0.0600
      8 C           4.3496    0.8159    0.7541 C.ar    1  UNL11      -0.0616
      9 C           3.3052    1.5420    1.2706 C.ar    1  UNL11      -0.0600
     10 C           2.0802    1.4633    0.6633 C.ar    1  UNL11      -0.0405
     11 C          -1.5953   -0.1604   -0.2508 C.ar    1  UNL11       0.0938
     12 C          -1.3962   -1.3411   -0.9317 C.ar    1  UNL11      -0.0440
     13 C          -2.3458   -2.3402   -0.9019 C.ar    1  UNL11      -0.0606
     14 C          -3.5029   -2.1189   -0.1675 C.ar    1  UNL11      -0.0531
     15 C          -3.7287   -0.9492    0.5226 C.ar    1  UNL11       0.0348
     16 C          -2.7504    0.0427    0.4738 C.ar    1  UNL11       0.2757
     17 O          -2.9857    1.1506    1.1390 O.3     1  UNL11      -0.5167
     18 C          -2.1196    2.1293    1.1446 C.2     1  UNL11       0.5043
     19 O          -2.3998    3.1658    1.7995 O.2     1  UNL11      -0.1891
     20 H           0.3231    3.5205    1.3503 H       1  UNL11       0.1427
     21 H           0.3284    3.4605   -0.4519 H       1  UNL11       0.1427
     22 H           0.4253    0.5221   -2.0231 H       1  UNL11       0.1522
     23 H           2.7323   -0.6572   -1.8329 H       1  UNL11       0.0636
     24 H           4.9637   -0.5283   -0.7457 H       1  UNL11       0.0618
     25 H           5.3202    0.8811    1.2387 H       1  UNL11       0.0618
     26 H           3.4603    2.1667    2.1489 H       1  UNL11       0.0618
     27 H           1.2726    2.0528    1.0993 H       1  UNL11       0.0636
     28 H          -0.5012   -1.5332   -1.5100 H       1  UNL11       0.0627
     29 H          -2.2466   -3.2850   -1.4143 H       1  UNL11       0.0618
     30 H          -4.2618   -2.9008   -0.1357 H       1  UNL11       0.0620
     31 H          -4.6412   -0.7953    1.0918 H       1  UNL11       0.0709
     32 H          -3.7867    1.2406    1.6168 H       1  UNL11       0.5656
@<TRIPOS>BOND
     1     1     2    1
     2     1    20    1
     3     1    21    1
     4     2     3    2
     5     3     4    1
     6     3    11    1
     7     4     5    1
     8     4    22    1
     9     5     6   ar
    10     6     7   ar
    11     6    23    1
    12     7     8   ar
    13     7    24    1
    14     8     9   ar
    15     8    25    1
    16     9    10   ar
    17     9    26    1
    18    10     5   ar
    19    10    27    1
    20    11    12   ar
    21    12    13   ar
    22    12    28    1
    23    13    14   ar
    24    13    29    1
    25    14    15   ar
    26    14    30    1
    27    15    16   ar
    28    15    31    1
    29    16    17    1
    30    16    11   ar
    31    17    18    1
    32    18    19    2
    33    18     2    1
    34    17    32    1
@<TRIPOS>MOLECULE
*****
 32 34 0 0 0
SMALL
GASTEIGER

@<TRIPOS>ATOM
      1 N          -0.0229    3.0825    0.4710 N.pl3   1  UNL11      -0.3465
      2 C          -0.9419    2.0045    0.4458 C.2     1  UNL11       0.1905
      3 C          -0.6602    0.8566   -0.2640 C.2     1  UNL11       0.0811
      4 N           0.5345    0.6772   -0.9985 N.pl3   1  UNL11      -0.3120
      5 C           0.9559    1.5027   -2.0542 C.ar    1  UNL11       0.0314
      6 C           2.2824    1.7254   -2.3533 C.ar    1  UNL11      -0.0405
      7 C           2.6304    2.5603   -3.4202 C.ar    1  UNL11      -0.0600
      8 C           1.6669    3.1698   -4.1845 C.ar    1  UNL11      -0.0616
      9 C           0.3437    2.9515   -3.8907 C.ar    1  UNL11      -0.0600
     10 C           0.0254    2.1304   -2.8419 C.ar    1  UNL11      -0.0405
     11 C          -1.5953   -0.1604   -0.2508 C.ar    1  UNL11       0.0938
     12 C          -1.3962   -1.3411   -0.9317 C.ar    1  UNL11      -0.0440
     13 C          -2.3458   -2.3402   -0.9019 C.ar    1  UNL11      -0.0606
     14 C          -3.5029   -2.1189   -0.1675 C.ar    1  UNL11      -0.0531
     15 C          -3.7287   -0.9492    0.5226 C.ar    1  UNL11       0.0348
     16 C          -2.7504    0.0427    0.4738 C.ar    1  UNL11       0.2757
     17 O          -2.9857    1.1506    1.1390 O.3     1  UNL11      -0.5167
     18 C          -2.1196    2.1293    1.1446 C.2     1  UNL11       0.5043
     19 O          -2.3998    3.1658    1.7995 O.2     1  UNL11      -0.1891
     20 H           0.3231    3.5205    1.3503 H       1  UNL11       0.1427
     21 H           0.3284    3.4605   -0.4519 H       1  UNL11       0.1427
     22 H           1.1289   -0.1317   -0.7189 H       1  UNL11       0.1522
     23 H           3.0622    1.2544   -1.7632 H       1  UNL11       0.0636
     24 H           3.6612    2.7412   -3.6628 H       1  UNL11       0.0618
     25 H           1.9154    3.8220   -5.0175 H       1  UNL11       0.0618
     26 H          -0.4310    3.4286   -4.4888 H       1  UNL11       0.0618
     27 H          -1.0350    1.9786   -2.6360 H       1  UNL11       0.0636
     28 H          -0.5012   -1.5332   -1.5100 H       1  UNL11       0.0627
     29 H          -2.2466   -3.2850   -1.4143 H       1  UNL11       0.0618
     30 H          -4.2618   -2.9008   -0.1357 H       1  UNL11       0.0620
     31 H          -4.6412   -0.7953    1.0918 H       1  UNL11       0.0709
     32 H          -3.7867    1.2406    1.6168 H       1  UNL11       0.5656
@<TRIPOS>BOND
     1     1     2    1
     2     1    20    1
     3     1    21    1
     4     2     3    2
     5     3     4    1
     6     3    11    1
     7     4     5    1
     8     4    22    1
     9     5     6   ar
    10     6     7   ar
    11     6    23    1
    12     7     8   ar
    13     7    24    1
    14     8     9   ar
    15     8    25    1
    16     9    10   ar
    17     9    26    1
    18    10     5   ar
    19    10    27    1
    20    11    12   ar
    21    12    13   ar
    22    12    28    1
    23    13    14   ar
    24    13    29    1
    25    14    15   ar
    26    14    30    1
    27    15    16   ar
    28    15    31    1
    29    16    17    1
    30    16    11   ar
    31    17    18    1
    32    18    19    2
    33    18     2    1
    34    17    32    1
@<TRIPOS>MOLECULE
*****
 32 34 0 0 0
SMALL
GASTEIGER

@<TRIPOS>ATOM
      1 N          -0.0229    3.0825    0.4710 N.pl3   1  UNL11      -0.3465
      2 C          -0.9419    2.0045    0.4458 C.2     1  UNL11       0.1905
      3 C          -0.6602    0.8566   -0.2640 C.2     1  UNL11       0.0811
      4 N           0.5345    0.6772   -0.9985 N.pl3   1  UNL11      -0.3120
      5 C           1.7683    1.2658   -0.6750 C.ar    1  UNL11       0.0314
      6 C           2.9815    0.6782   -0.9604 C.ar    1  UNL11      -0.0405
      7 C           4.1727    1.3218   -0.6091 C.ar    1  UNL11      -0.0600
      8 C           4.1583    2.5408    0.0216 C.ar    1  UNL11      -0.0616
      9 C           2.9523    3.1307    0.3085 C.ar    1  UNL11      -0.0600
     10 C           1.7983    2.4831   -0.0443 C.ar    1  UNL11      -0.0405
     11 C          -1.5953   -0.1604   -0.2508 C.ar    1  UNL11       0.0938
     12 C          -1.3962   -1.3411   -0.9317 C.ar    1  UNL11      -0.0440
     13 C          -2.3458   -2.3402   -0.9019 C.ar    1  UNL11      -0.0606
     14 C          -3.5029   -2.1189   -0.1675 C.ar    1  UNL11      -0.0531
     15 C          -3.7287   -0.9492    0.5226 C.ar    1  UNL11       0.0348
     16 C          -2.7504    0.0427    0.4738 C.ar    1  UNL11       0.2757
     17 O          -2.9857    1.1506    1.1390 O.3     1  UNL11      -0.5167
     18 C          -2.1196    2.1293    1.1446 C.2     1  UNL11       0.5043
     19 O          -2.3998    3.1658    1.7995 O.2     1  UNL11      -0.1891
     20 H           0.3231    3.5205    1.3503 H       1  UNL11       0.1427
     21 H           0.3284    3.4605   -0.4519 H       1  UNL11       0.1427
     22 H           0.4711    0.0600   -1.8357 H       1  UNL11       0.1522
     23 H           3.0183   -0.2854   -1.4587 H       1  UNL11       0.0636
     24 H           5.1243    0.8734   -0.8267 H       1  UNL11       0.0618
     25 H           5.0719    3.0579    0.3032 H       1  UNL11       0.0618
     26 H           2.9262    4.0976    0.8085 H       1  UNL11       0.0618
     27 H           0.8578    2.9797    0.1983 H       1  UNL11       0.0636
     28 H          -0.5012   -1.5332   -1.5100 H       1  UNL11       0.0627
     29 H          -2.2466   -3.2850   -1.4143 H       1  UNL11       0.0618
     30 H          -4.2618   -2.9008   -0.1357 H       1  UNL11       0.0620
     31 H          -4.6412   -0.7953    1.0918 H       1  UNL11       0.0709
     32 H          -3.7867    1.2406    1.6168 H       1  UNL11       0.5656
@<TRIPOS>BOND
     1     1     2    1
     2     1    20    1
     3     1    21    1
     4     2     3    2
     5     3     4    1
     6     3    11    1
     7     4     5    1
     8     4    22    1
     9     5     6   ar
    10     6     7   ar
    11     6    23    1
    12     7     8   ar
    13     7    24    1
    14     8     9   ar
    15     8    25    1
    16     9    10   ar
    17     9    26    1
    18    10     5   ar
    19    10    27    1
    20    11    12   ar
    21    12    13   ar
    22    12    28    1
    23    13    14   ar
    24    13    29    1
    25    14    15   ar
    26    14    30    1
    27    15    16   ar
    28    15    31    1
    29    16    17    1
    30    16    11   ar
    31    17    18    1
    32    18    19    2
    33    18     2    1
    34    17    32    1
@<TRIPOS>MOLECULE
*****
 32 34 0 0 0
SMALL
GASTEIGER

@<TRIPOS>ATOM
      1 N          -0.0229    3.0825    0.4710 N.pl3   1  UNL11      -0.3465
      2 C          -0.9419    2.0045    0.4458 C.2     1  UNL11       0.1905
      3 C          -0.6602    0.8566   -0.2640 C.2     1  UNL11       0.0811
      4 N           0.5345    0.6772   -0.9985 N.pl3   1  UNL11      -0.3120
      5 C           1.2676    1.7143   -1.5989 C.ar    1  UNL11       0.0314
      6 C           2.6345    1.6712   -1.7674 C.ar    1  UNL11      -0.0405
      7 C           3.3006    2.7411   -2.3743 C.ar    1  UNL11      -0.0600
      8 C           2.6131    3.8461   -2.8106 C.ar    1  UNL11      -0.0616
      9 C           1.2511    3.8942   -2.6450 C.ar    1  UNL11      -0.0600
     10 C           0.6191    2.8358   -2.0484 C.ar    1  UNL11      -0.0405
     11 C          -1.5953   -0.1604   -0.2508 C.ar    1  UNL11       0.0938
     12 C          -1.3962   -1.3411   -0.9317 C.ar    1  UNL11      -0.0440
     13 C          -2.3458   -2.3402   -0.9019 C.ar    1  UNL11      -0.0606
     14 C          -3.5029   -2.1189   -0.1675 C.ar    1  UNL11      -0.0531
     15 C          -3.7287   -0.9492    0.5226 C.ar    1  UNL11       0.0348
     16 C          -2.7504    0.0427    0.4738 C.ar    1  UNL11       0.2757
     17 O          -2.9857    1.1506    1.1390 O.3     1  UNL11      -0.5167
     18 C          -2.1196    2.1293    1.1446 C.2     1  UNL11       0.5043
     19 O          -2.3998    3.1658    1.7995 O.2     1  UNL11      -0.1891
     20 H           0.3231    3.5205    1.3503 H       1  UNL11       0.1427
     21 H           0.3284    3.4605   -0.4519 H       1  UNL11       0.1427
     22 H           0.8765   -0.3030   -1.0875 H       1  UNL11       0.1522
     23 H           3.1998    0.8080   -1.4305 H       1  UNL11       0.0636
     24 H           4.3659    2.7186   -2.5110 H       1  UNL11       0.0618
     25 H           3.1110    4.6879   -3.2845 H       1  UNL11       0.0618
     26 H           0.6932    4.7647   -2.9865 H       1  UNL11       0.0618
     27 H          -0.4632    2.9066   -1.9326 H       1  UNL11       0.0636
     28 H          -0.5012   -1.5332   -1.5100 H       1  UNL11       0.0627
     29 H          -2.2466   -3.2850   -1.4143 H       1  UNL11       0.0618
     30 H          -4.2618   -2.9008   -0.1357 H       1  UNL11       0.0620
     31 H          -4.6412   -0.7953    1.0918 H       1  UNL11       0.0709
     32 H          -3.7867    1.2406    1.6168 H       1  UNL11       0.5656
@<TRIPOS>BOND
     1     1     2    1
     2     1    20    1
     3     1    21    1
     4     2     3    2
     5     3     4    1
     6     3    11    1
     7     4     5    1
     8     4    22    1
     9     5     6   ar
    10     6     7   ar
    11     6    23    1
    12     7     8   ar
    13     7    24    1
    14     8     9   ar
    15     8    25    1
    16     9    10   ar
    17     9    26    1
    18    10     5   ar
    19    10    27    1
    20    11    12   ar
    21    12    13   ar
    22    12    28    1
    23    13    14   ar
    24    13    29    1
    25    14    15   ar
    26    14    30    1
    27    15    16   ar
    28    15    31    1
    29    16    17    1
    30    16    11   ar
    31    17    18    1
    32    18    19    2
    33    18     2    1
    34    17    32    1
@<TRIPOS>MOLECULE
*****
 32 34 0 0 0
SMALL
GASTEIGER

@<TRIPOS>ATOM
      1 N          -0.0229    3.0825    0.4710 N.pl3   1  UNL11      -0.3465
      2 C          -0.9419    2.0045    0.4458 C.2     1  UNL11       0.1905
      3 C          -0.6602    0.8566   -0.2640 C.2     1  UNL11       0.0811
      4 N           0.5345    0.6772   -0.9985 N.pl3   1  UNL11      -0.3120
      5 C           1.7142    0.1160   -0.4821 C.ar    1  UNL11       0.0314
      6 C           2.9716    0.4673   -0.9227 C.ar    1  UNL11      -0.0405
      7 C           4.1043   -0.1328   -0.3629 C.ar    1  UNL11      -0.0600
      8 C           3.9882   -1.0757    0.6278 C.ar    1  UNL11      -0.0616
      9 C           2.7378   -1.4295    1.0705 C.ar    1  UNL11      -0.0600
     10 C           1.6425   -0.8294    0.5086 C.ar    1  UNL11      -0.0405
     11 C          -1.5953   -0.1604   -0.2508 C.ar    1  UNL11       0.0938
     12 C          -1.3962   -1.3411   -0.9317 C.ar    1  UNL11      -0.0440
     13 C          -2.3458   -2.3402   -0.9019 C.ar    1  UNL11      -0.0606
     14 C          -3.5029   -2.1189   -0.1675 C.ar    1  UNL11      -0.0531
     15 C          -3.7287   -0.9492    0.5226 C.ar    1  UNL11       0.0348
     16 C          -2.7504    0.0427    0.4738 C.ar    1  UNL11       0.2757
     17 O          -2.9857    1.1506    1.1390 O.3     1  UNL11      -0.5167
     18 C          -2.1196    2.1293    1.1446 C.2     1  UNL11       0.5043
     19 O          -2.3998    3.1658    1.7995 O.2     1  UNL11      -0.1891
     20 H           0.3231    3.5205    1.3503 H       1  UNL11       0.1427
     21 H           0.3284    3.4605   -0.4519 H       1  UNL11       0.1427
     22 H           0.5149    0.9911   -1.9919 H       1  UNL11       0.1522
     23 H           3.0887    1.2105   -1.7051 H       1  UNL11       0.0636
     24 H           5.0895    0.1333   -0.6983 H       1  UNL11       0.0618
     25 H           4.8550   -1.5541    1.0762 H       1  UNL11       0.0618
     26 H           2.6311   -2.1761    1.8559 H       1  UNL11       0.0618
     27 H           0.6643   -1.1337    0.8835 H       1  UNL11       0.0636
     28 H          -0.5012   -1.5332   -1.5100 H       1  UNL11       0.0627
     29 H          -2.2466   -3.2850   -1.4143 H       1  UNL11       0.0618
     30 H          -4.2618   -2.9008   -0.1357 H       1  UNL11       0.0620
     31 H          -4.6412   -0.7953    1.0918 H       1  UNL11       0.0709
     32 H          -3.7867    1.2406    1.6168 H       1  UNL11       0.5656
@<TRIPOS>BOND
     1     1     2    1
     2     1    20    1
     3     1    21    1
     4     2     3    2
     5     3     4    1
     6     3    11    1
     7     4     5    1
     8     4    22    1
     9     5     6   ar
    10     6     7   ar
    11     6    23    1
    12     7     8   ar
    13     7    24    1
    14     8     9   ar
    15     8    25    1
    16     9    10   ar
    17     9    26    1
    18    10     5   ar
    19    10    27    1
    20    11    12   ar
    21    12    13   ar
    22    12    28    1
    23    13    14   ar
    24    13    29    1
    25    14    15   ar
    26    14    30    1
    27    15    16   ar
    28    15    31    1
    29    16    17    1
    30    16    11   ar
    31    17    18    1
    32    18    19    2
    33    18     2    1
    34    17    32    1
@<TRIPOS>MOLECULE
*****
 32 34 0 0 0
SMALL
GASTEIGER

@<TRIPOS>ATOM
      1 N          -0.0229    3.0825    0.4710 N.pl3   1  UNL11      -0.3465
      2 C          -0.9419    2.0045    0.4458 C.2     1  UNL11       0.1905
      3 C          -0.6602    0.8566   -0.2640 C.2     1  UNL11       0.0811
      4 N           0.5345    0.6772   -0.9985 N.pl3   1  UNL11      -0.3120
      5 C           1.7142    0.1160   -0.4821 C.ar    1  UNL11       0.0314
      6 C           2.8667   -0.0298   -1.2232 C.ar    1  UNL11      -0.0405
      7 C           4.0062   -0.5978   -0.6440 C.ar    1  UNL11      -0.0600
      8 C           4.0003   -1.0182    0.6626 C.ar    1  UNL11      -0.0616
      9 C           2.8547   -0.8755    1.4055 C.ar    1  UNL11      -0.0600
     10 C           1.7507   -0.3168    0.8186 C.ar    1  UNL11      -0.0405
     11 C          -1.5953   -0.1604   -0.2508 C.ar    1  UNL11       0.0938
     12 C          -1.3962   -1.3411   -0.9317 C.ar    1  UNL11      -0.0440
     13 C          -2.3458   -2.3402   -0.9019 C.ar    1  UNL11      -0.0606
     14 C          -3.5029   -2.1189   -0.1675 C.ar    1  UNL11      -0.0531
     15 C          -3.7287   -0.9492    0.5226 C.ar    1  UNL11       0.0348
     16 C          -2.7504    0.0427    0.4738 C.ar    1  UNL11       0.2757
     17 O          -2.9857    1.1506    1.1390 O.3     1  UNL11      -0.5167
     18 C          -2.1196    2.1293    1.1446 C.2     1  UNL11       0.5043
     19 O          -2.3998    3.1658    1.7995 O.2     1  UNL11      -0.1891
     20 H           0.3231    3.5205    1.3503 H       1  UNL11       0.1427
     21 H           0.3284    3.4605   -0.4519 H       1  UNL11       0.1427
     22 H           0.5149    0.9911   -1.9919 H       1  UNL11       0.1522
     23 H           2.8955    0.2953   -2.2584 H       1  UNL11       0.0636
     24 H           4.9102   -0.7164   -1.2120 H       1  UNL11       0.0618
     25 H           4.8744   -1.4620    1.1319 H       1  UNL11       0.0618
     26 H           2.8361   -1.2047    2.4433 H       1  UNL11       0.0618
     27 H           0.8575   -0.2182    1.4371 H       1  UNL11       0.0636
     28 H          -0.5012   -1.5332   -1.5100 H       1  UNL11       0.0627
     29 H          -2.2466   -3.2850   -1.4143 H       1  UNL11       0.0618
     30 H          -4.2618   -2.9008   -0.1357 H       1  UNL11       0.0620
     31 H          -4.6412   -0.7953    1.0918 H       1  UNL11       0.0709
     32 H          -3.7867    1.2406    1.6168 H       1  UNL11       0.5656
@<TRIPOS>BOND
     1     1     2    1
     2     1    20    1
     3     1    21    1
     4     2     3    2
     5     3     4    1
     6     3    11    1
     7     4     5    1
     8     4    22    1
     9     5     6   ar
    10     6     7   ar
    11     6    23    1
    12     7     8   ar
    13     7    24    1
    14     8     9   ar
    15     8    25    1
    16     9    10   ar
    17     9    26    1
    18    10     5   ar
    19    10    27    1
    20    11    12   ar
    21    12    13   ar
    22    12    28    1
    23    13    14   ar
    24    13    29    1
    25    14    15   ar
    26    14    30    1
    27    15    16   ar
    28    15    31    1
    29    16    17    1
    30    16    11   ar
    31    17    18    1
    32    18    19    2
    33    18     2    1
    34    17    32    1
@<TRIPOS>MOLECULE
*****
 32 34 0 0 0
SMALL
GASTEIGER

@<TRIPOS>ATOM
      1 N          -0.0229    3.0825    0.4710 N.pl3   1  UNL11      -0.3465
      2 C          -0.9419    2.0045    0.4458 C.2     1  UNL11       0.1905
      3 C          -0.6602    0.8566   -0.2640 C.2     1  UNL11       0.0811
      4 N           0.5345    0.6772   -0.9985 N.pl3   1  UNL11      -0.3120
      5 C           0.7020    1.0225   -2.3498 C.ar    1  UNL11       0.0314
      6 C           1.8775    0.8191   -3.0395 C.ar    1  UNL11      -0.0405
      7 C           1.9740    1.1875   -4.3854 C.ar    1  UNL11      -0.0600
      8 C           0.9099    1.7543   -5.0414 C.ar    1  UNL11      -0.0616
      9 C          -0.2636    1.9593   -4.3590 C.ar    1  UNL11      -0.0600
     10 C          -0.3363    1.5912   -3.0419 C.ar    1  UNL11      -0.0405
     11 C          -1.5953   -0.1604   -0.2508 C.ar    1  UNL11       0.0938
     12 C          -1.3962   -1.3411   -0.9317 C.ar    1  UNL11      -0.0440
     13 C          -2.3458   -2.3402   -0.9019 C.ar    1  UNL11      -0.0606
     14 C          -3.5029   -2.1189   -0.1675 C.ar    1  UNL11      -0.0531
     15 C          -3.7287   -0.9492    0.5226 C.ar    1  UNL11       0.0348
     16 C          -2.7504    0.0427    0.4738 C.ar    1  UNL11       0.2757
     17 O          -2.9857    1.1506    1.1390 O.3     1  UNL11      -0.5167
     18 C          -2.1196    2.1293    1.1446 C.2     1  UNL11       0.5043
     19 O          -2.3998    3.1658    1.7995 O.2     1  UNL11      -0.1891
     20 H           0.3231    3.5205    1.3503 H       1  UNL11       0.1427
     21 H           0.3284    3.4605   -0.4519 H       1  UNL11       0.1427
     22 H           1.3345    0.2571   -0.4795 H       1  UNL11       0.1522
     23 H           2.7326    0.3724   -2.5421 H       1  UNL11       0.0636
     24 H           2.8852    1.0336   -4.9332 H       1  UNL11       0.0618
     25 H           0.9636    2.0477   -6.0864 H       1  UNL11       0.0618
     26 H          -1.1158    2.4080   -4.8671 H       1  UNL11       0.0618
     27 H          -1.2830    1.7681   -2.5298 H       1  UNL11       0.0636
     28 H          -0.5012   -1.5332   -1.5100 H       1  UNL11       0.0627
     29 H          -2.2466   -3.2850   -1.4143 H       1  UNL11       0.0618
     30 H          -4.2618   -2.9008   -0.1357 H       1  UNL11       0.0620
     31 H          -4.6412   -0.7953    1.0918 H       1  UNL11       0.0709
     32 H          -3.7867    1.2406    1.6168 H       1  UNL11       0.5656
@<TRIPOS>BOND
     1     1     2    1
     2     1    20    1
     3     1    21    1
     4     2     3    2
     5     3     4    1
     6     3    11    1
     7     4     5    1
     8     4    22    1
     9     5     6   ar
    10     6     7   ar
    11     6    23    1
    12     7     8   ar
    13     7    24    1
    14     8     9   ar
    15     8    25    1
    16     9    10   ar
    17     9    26    1
    18    10     5   ar
    19    10    27    1
    20    11    12   ar
    21    12    13   ar
    22    12    28    1
    23    13    14   ar
    24    13    29    1
    25    14    15   ar
    26    14    30    1
    27    15    16   ar
    28    15    31    1
    29    16    17    1
    30    16    11   ar
    31    17    18    1
    32    18    19    2
    33    18     2    1
    34    17    32    1
@<TRIPOS>MOLECULE
*****
 32 34 0 0 0
SMALL
GASTEIGER

@<TRIPOS>ATOM
      1 N          -0.0229    3.0825    0.4710 N.pl3   1  UNL11      -0.3465
      2 C          -0.9419    2.0045    0.4458 C.2     1  UNL11       0.1905
      3 C          -0.6602    0.8566   -0.2640 C.2     1  UNL11       0.0811
      4 N           0.5345    0.6772   -0.9985 N.pl3   1  UNL11      -0.3120
      5 C           0.7020    1.0225   -2.3498 C.ar    1  UNL11       0.0314
      6 C           1.5547    0.3513   -3.1990 C.ar    1  UNL11      -0.0405
      7 C           1.6721    0.7499   -4.5346 C.ar    1  UNL11      -0.0600
      8 C           0.9472    1.8083   -5.0230 C.ar    1  UNL11      -0.0616
      9 C           0.0963    2.4806   -4.1811 C.ar    1  UNL11      -0.0600
     10 C          -0.0032    2.0735   -2.8773 C.ar    1  UNL11      -0.0405
     11 C          -1.5953   -0.1604   -0.2508 C.ar    1  UNL11       0.0938
     12 C          -1.3962   -1.3411   -0.9317 C.ar    1  UNL11      -0.0440
     13 C          -2.3458   -2.3402   -0.9019 C.ar    1  UNL11      -0.0606
     14 C          -3.5029   -2.1189   -0.1675 C.ar    1  UNL11      -0.0531
     15 C          -3.7287   -0.9492    0.5226 C.ar    1  UNL11       0.0348
     16 C          -2.7504    0.0427    0.4738 C.ar    1  UNL11       0.2757
     17 O          -2.9857    1.1506    1.1390 O.3     1  UNL11      -0.5167
     18 C          -2.1196    2.1293    1.1446 C.2     1  UNL11       0.5043
     19 O          -2.3998    3.1658    1.7995 O.2     1  UNL11      -0.1891
     20 H           0.3231    3.5205    1.3503 H       1  UNL11       0.1427
     21 H           0.3284    3.4605   -0.4519 H       1  UNL11       0.1427
     22 H           1.3345    0.2571   -0.4795 H       1  UNL11       0.1522
     23 H           2.1383   -0.4887   -2.8359 H       1  UNL11       0.0636
     24 H           2.3335    0.2341   -5.2059 H       1  UNL11       0.0618
     25 H           1.0234    2.1343   -6.0569 H       1  UNL11       0.0618
     26 H          -0.4848    3.3220   -4.5553 H       1  UNL11       0.0618
     27 H          -0.6884    2.6295   -2.2359 H       1  UNL11       0.0636
     28 H          -0.5012   -1.5332   -1.5100 H       1  UNL11       0.0627
     29 H          -2.2466   -3.2850   -1.4143 H       1  UNL11       0.0618
     30 H          -4.2618   -2.9008   -0.1357 H       1  UNL11       0.0620
     31 H          -4.6412   -0.7953    1.0918 H       1  UNL11       0.0709
     32 H          -3.7867    1.2406    1.6168 H       1  UNL11       0.5656
@<TRIPOS>BOND
     1     1     2    1
     2     1    20    1
     3     1    21    1
     4     2     3    2
     5     3     4    1
     6     3    11    1
     7     4     5    1
     8     4    22    1
     9     5     6   ar
    10     6     7   ar
    11     6    23    1
    12     7     8   ar
    13     7    24    1
    14     8     9   ar
    15     8    25    1
    16     9    10   ar
    17     9    26    1
    18    10     5   ar
    19    10    27    1
    20    11    12   ar
    21    12    13   ar
    22    12    28    1
    23    13    14   ar
    24    13    29    1
    25    14    15   ar
    26    14    30    1
    27    15    16   ar
    28    15    31    1
    29    16    17    1
    30    16    11   ar
    31    17    18    1
    32    18    19    2
    33    18     2    1
    34    17    32    1
@<TRIPOS>MOLECULE
*****
 32 34 0 0 0
SMALL
GASTEIGER

@<TRIPOS>ATOM
      1 N          -0.0229    3.0825    0.4710 N.pl3   1  UNL11      -0.3465
      2 C          -0.9419    2.0045    0.4458 C.2     1  UNL11       0.1905
      3 C          -0.6602    0.8566   -0.2640 C.2     1  UNL11       0.0811
      4 N           0.5345    0.6772   -0.9985 N.pl3   1  UNL11      -0.3120
      5 C           1.7142    0.1160   -0.4821 C.ar    1  UNL11       0.0314
      6 C           2.0754    0.2095    0.8444 C.ar    1  UNL11      -0.0405
      7 C           3.2659   -0.3740    1.2902 C.ar    1  UNL11      -0.0600
      8 C           4.0919   -1.0457    0.4237 C.ar    1  UNL11      -0.0616
      9 C           3.7369   -1.1417   -0.8990 C.ar    1  UNL11      -0.0600
     10 C           2.5670   -0.5631   -1.3139 C.ar    1  UNL11      -0.0405
     11 C          -1.5953   -0.1604   -0.2508 C.ar    1  UNL11       0.0938
     12 C          -1.3962   -1.3411   -0.9317 C.ar    1  UNL11      -0.0440
     13 C          -2.3458   -2.3402   -0.9019 C.ar    1  UNL11      -0.0606
     14 C          -3.5029   -2.1189   -0.1675 C.ar    1  UNL11      -0.0531
     15 C          -3.7287   -0.9492    0.5226 C.ar    1  UNL11       0.0348
     16 C          -2.7504    0.0427    0.4738 C.ar    1  UNL11       0.2757
     17 O          -2.9857    1.1506    1.1390 O.3     1  UNL11      -0.5167
     18 C          -2.1196    2.1293    1.1446 C.2     1  UNL11       0.5043
     19 O          -2.3998    3.1658    1.7995 O.2     1  UNL11      -0.1891
     20 H           0.3231    3.5205    1.3503 H       1  UNL11       0.1427
     21 H           0.3284    3.4605   -0.4519 H       1  UNL11       0.1427
     22 H           0.5149    0.9911   -1.9919 H       1  UNL11       0.1522
     23 H           1.4384    0.7355    1.5484 H       1  UNL11       0.0636
     24 H           3.5577   -0.3077    2.3219 H       1  UNL11       0.0618
     25 H           5.0210   -1.5062    0.7491 H       1  UNL11       0.0618
     26 H           4.3827   -1.6717   -1.5973 H       1  UNL11       0.0618
     27 H           2.3152   -0.6583   -2.3710 H       1  UNL11       0.0636
     28 H          -0.5012   -1.5332   -1.5100 H       1  UNL11       0.0627
     29 H          -2.2466   -3.2850   -1.4143 H       1  UNL11       0.0618
     30 H          -4.2618   -2.9008   -0.1357 H       1  UNL11       0.0620
     31 H          -4.6412   -0.7953    1.0918 H       1  UNL11       0.0709
     32 H          -3.7867    1.2406    1.6168 H       1  UNL11       0.5656
@<TRIPOS>BOND
     1     1     2    1
     2     1    20    1
     3     1    21    1
     4     2     3    2
     5     3     4    1
     6     3    11    1
     7     4     5    1
     8     4    22    1
     9     5     6   ar
    10     6     7   ar
    11     6    23    1
    12     7     8   ar
    13     7    24    1
    14     8     9   ar
    15     8    25    1
    16     9    10   ar
    17     9    26    1
    18    10     5   ar
    19    10    27    1
    20    11    12   ar
    21    12    13   ar
    22    12    28    1
    23    13    14   ar
    24    13    29    1
    25    14    15   ar
    26    14    30    1
    27    15    16   ar
    28    15    31    1
    29    16    17    1
    30    16    11   ar
    31    17    18    1
    32    18    19    2
    33    18     2    1
    34    17    32    1
@<TRIPOS>MOLECULE
*****
 32 34 0 0 0
SMALL
GASTEIGER

@<TRIPOS>ATOM
      1 N          -0.0229    3.0825    0.4710 N.pl3   1  UNL11      -0.3465
      2 C          -0.9419    2.0045    0.4458 C.2     1  UNL11       0.1905
      3 C          -0.6602    0.8566   -0.2640 C.2     1  UNL11       0.0811
      4 N           0.5345    0.6772   -0.9985 N.pl3   1  UNL11      -0.3120
      5 C           1.7142    0.1160   -0.4821 C.ar    1  UNL11       0.0314
      6 C           1.8318   -0.3275    0.8172 C.ar    1  UNL11      -0.0405
      7 C           3.0381   -0.8764    1.2647 C.ar    1  UNL11      -0.0600
      8 C           4.1200   -0.9836    0.4269 C.ar    1  UNL11      -0.0616
      9 C           4.0083   -0.5432   -0.8686 C.ar    1  UNL11      -0.0600
     10 C           2.8182   -0.0093   -1.2858 C.ar    1  UNL11      -0.0405
     11 C          -1.5953   -0.1604   -0.2508 C.ar    1  UNL11       0.0938
     12 C          -1.3962   -1.3411   -0.9317 C.ar    1  UNL11      -0.0440
     13 C          -2.3458   -2.3402   -0.9019 C.ar    1  UNL11      -0.0606
     14 C          -3.5029   -2.1189   -0.1675 C.ar    1  UNL11      -0.0531
     15 C          -3.7287   -0.9492    0.5226 C.ar    1  UNL11       0.0348
     16 C          -2.7504    0.0427    0.4738 C.ar    1  UNL11       0.2757
     17 O          -2.9857    1.1506    1.1390 O.3     1  UNL11      -0.5167
     18 C          -2.1196    2.1293    1.1446 C.2     1  UNL11       0.5043
     19 O          -2.3998    3.1658    1.7995 O.2     1  UNL11      -0.1891
     20 H           0.3231    3.5205    1.3503 H       1  UNL11       0.1427
     21 H           0.3284    3.4605   -0.4519 H       1  UNL11       0.1427
     22 H           0.5149    0.9911   -1.9919 H       1  UNL11       0.1522
     23 H           0.9900   -0.2532    1.4983 H       1  UNL11       0.0636
     24 H           3.1414   -1.2255    2.2754 H       1  UNL11       0.0618
     25 H           5.0660   -1.4067    0.7542 H       1  UNL11       0.0618
     26 H           4.8587   -0.6222   -1.5441 H       1  UNL11       0.0618
     27 H           2.7637    0.3308   -2.3208 H       1  UNL11       0.0636
     28 H          -0.5012   -1.5332   -1.5100 H       1  UNL11       0.0627
     29 H          -2.2466   -3.2850   -1.4143 H       1  UNL11       0.0618
     30 H          -4.2618   -2.9008   -0.1357 H       1  UNL11       0.0620
     31 H          -4.6412   -0.7953    1.0918 H       1  UNL11       0.0709
     32 H          -3.7867    1.2406    1.6168 H       1  UNL11       0.5656
@<TRIPOS>BOND
     1     1     2    1
     2     1    20    1
     3     1    21    1
     4     2     3    2
     5     3     4    1
     6     3    11    1
     7     4     5    1
     8     4    22    1
     9     5     6   ar
    10     6     7   ar
    11     6    23    1
    12     7     8   ar
    13     7    24    1
    14     8     9   ar
    15     8    25    1
    16     9    10   ar
    17     9    26    1
    18    10     5   ar
    19    10    27    1
    20    11    12   ar
    21    12    13   ar
    22    12    28    1
    23    13    14   ar
    24    13    29    1
    25    14    15   ar
    26    14    30    1
    27    15    16   ar
    28    15    31    1
    29    16    17    1
    30    16    11   ar
    31    17    18    1
    32    18    19    2
    33    18     2    1
    34    17    32    1
@<TRIPOS>MOLECULE
*****
 32 34 0 0 0
SMALL
GASTEIGER

@<TRIPOS>ATOM
      1 N          -0.0229    3.0825    0.4710 N.pl3   1  UNL11      -0.3465
      2 C          -0.9419    2.0045    0.4458 C.2     1  UNL11       0.1905
      3 C          -0.6602    0.8566   -0.2640 C.2     1  UNL11       0.0811
      4 N           0.5345    0.6772   -0.9985 N.pl3   1  UNL11      -0.3120
      5 C           1.7142    0.1160   -0.4821 C.ar    1  UNL11       0.0314
      6 C           1.7231   -0.8272    0.5224 C.ar    1  UNL11      -0.0405
      7 C           2.9364   -1.3438    0.9889 C.ar    1  UNL11      -0.0600
      8 C           4.1325   -0.9259    0.4610 C.ar    1  UNL11      -0.0616
      9 C           4.1293    0.0137   -0.5399 C.ar    1  UNL11      -0.0600
     10 C           2.9302    0.5061   -0.9816 C.ar    1  UNL11      -0.0405
     11 C          -1.5953   -0.1604   -0.2508 C.ar    1  UNL11       0.0938
     12 C          -1.3962   -1.3411   -0.9317 C.ar    1  UNL11      -0.0440
     13 C          -2.3458   -2.3402   -0.9019 C.ar    1  UNL11      -0.0606
     14 C          -3.5029   -2.1189   -0.1675 C.ar    1  UNL11      -0.0531
     15 C          -3.7287   -0.9492    0.5226 C.ar    1  UNL11       0.0348
     16 C          -2.7504    0.0427    0.4738 C.ar    1  UNL11       0.2757
     17 O          -2.9857    1.1506    1.1390 O.3     1  UNL11      -0.5167
     18 C          -2.1196    2.1293    1.1446 C.2     1  UNL11       0.5043
     19 O          -2.3998    3.1658    1.7995 O.2     1  UNL11      -0.1891
     20 H           0.3231    3.5205    1.3503 H       1  UNL11       0.1427
     21 H           0.3284    3.4605   -0.4519 H       1  UNL11       0.1427
     22 H           0.5149    0.9911   -1.9919 H       1  UNL11       0.1522
     23 H           0.7900   -1.1732    0.9555 H       1  UNL11       0.0636
     24 H           2.9557   -2.0796    1.7714 H       1  UNL11       0.0618
     25 H           5.0861   -1.3142    0.8088 H       1  UNL11       0.0618
     26 H           5.0710    0.3542   -0.9678 H       1  UNL11       0.0618
     27 H           2.9638    1.2511   -1.7777 H       1  UNL11       0.0636
     28 H          -0.5012   -1.5332   -1.5100 H       1  UNL11       0.0627
     29 H          -2.2466   -3.2850   -1.4143 H       1  UNL11       0.0618
     30 H          -4.2618   -2.9008   -0.1357 H       1  UNL11       0.0620
     31 H          -4.6412   -0.7953    1.0918 H       1  UNL11       0.0709
     32 H          -3.7867    1.2406    1.6168 H       1  UNL11       0.5656
@<TRIPOS>BOND
     1     1     2    1
     2     1    20    1
     3     1    21    1
     4     2     3    2
     5     3     4    1
     6     3    11    1
     7     4     5    1
     8     4    22    1
     9     5     6   ar
    10     6     7   ar
    11     6    23    1
    12     7     8   ar
    13     7    24    1
    14     8     9   ar
    15     8    25    1
    16     9    10   ar
    17     9    26    1
    18    10     5   ar
    19    10    27    1
    20    11    12   ar
    21    12    13   ar
    22    12    28    1
    23    13    14   ar
    24    13    29    1
    25    14    15   ar
    26    14    30    1
    27    15    16   ar
    28    15    31    1
    29    16    17    1
    30    16    11   ar
    31    17    18    1
    32    18    19    2
    33    18     2    1
    34    17    32    1
@<TRIPOS>MOLECULE
*****
 32 34 0 0 0
SMALL
GASTEIGER

@<TRIPOS>ATOM
      1 N          -0.0229    3.0825    0.4710 N.pl3   1  UNL11      -0.3465
      2 C          -0.9419    2.0045    0.4458 C.2     1  UNL11       0.1905
      3 C          -0.6602    0.8566   -0.2640 C.2     1  UNL11       0.0811
      4 N           0.5345    0.6772   -0.9985 N.pl3   1  UNL11      -0.3120
      5 C           0.7020    1.0225   -2.3498 C.ar    1  UNL11       0.0314
      6 C           0.0187    2.0552   -2.9541 C.ar    1  UNL11      -0.0405
      7 C           0.2352    2.3439   -4.3055 C.ar    1  UNL11      -0.0600
      8 C           1.1245    1.6112   -5.0513 C.ar    1  UNL11      -0.0616
      9 C           1.8080    0.5811   -4.4543 C.ar    1  UNL11      -0.0600
     10 C           1.5807    0.3158   -3.1301 C.ar    1  UNL11      -0.0405
     11 C          -1.5953   -0.1604   -0.2508 C.ar    1  UNL11       0.0938
     12 C          -1.3962   -1.3411   -0.9317 C.ar    1  UNL11      -0.0440
     13 C          -2.3458   -2.3402   -0.9019 C.ar    1  UNL11      -0.0606
     14 C          -3.5029   -2.1189   -0.1675 C.ar    1  UNL11      -0.0531
     15 C          -3.7287   -0.9492    0.5226 C.ar    1  UNL11       0.0348
     16 C          -2.7504    0.0427    0.4738 C.ar    1  UNL11       0.2757
     17 O          -2.9857    1.1506    1.1390 O.3     1  UNL11      -0.5167
     18 C          -2.1196    2.1293    1.1446 C.2     1  UNL11       0.5043
     19 O          -2.3998    3.1658    1.7995 O.2     1  UNL11      -0.1891
     20 H           0.3231    3.5205    1.3503 H       1  UNL11       0.1427
     21 H           0.3284    3.4605   -0.4519 H       1  UNL11       0.1427
     22 H           1.3345    0.2571   -0.4795 H       1  UNL11       0.1522
     23 H          -0.6897    2.6488   -2.3848 H       1  UNL11       0.0636
     24 H          -0.2917    3.1466   -4.7871 H       1  UNL11       0.0618
     25 H           1.3076    1.8187   -6.1023 H       1  UNL11       0.0618
     26 H           2.5165   -0.0083   -5.0341 H       1  UNL11       0.0618
     27 H           2.1403   -0.5092   -2.6872 H       1  UNL11       0.0636
     28 H          -0.5012   -1.5332   -1.5100 H       1  UNL11       0.0627
     29 H          -2.2466   -3.2850   -1.4143 H       1  UNL11       0.0618
     30 H          -4.2618   -2.9008   -0.1357 H       1  UNL11       0.0620
     31 H          -4.6412   -0.7953    1.0918 H       1  UNL11       0.0709
     32 H          -3.7867    1.2406    1.6168 H       1  UNL11       0.5656
@<TRIPOS>BOND
     1     1     2    1
     2     1    20    1
     3     1    21    1
     4     2     3    2
     5     3     4    1
     6     3    11    1
     7     4     5    1
     8     4    22    1
     9     5     6   ar
    10     6     7   ar
    11     6    23    1
    12     7     8   ar
    13     7    24    1
    14     8     9   ar
    15     8    25    1
    16     9    10   ar
    17     9    26    1
    18    10     5   ar
    19    10    27    1
    20    11    12   ar
    21    12    13   ar
    22    12    28    1
    23    13    14   ar
    24    13    29    1
    25    14    15   ar
    26    14    30    1
    27    15    16   ar
    28    15    31    1
    29    16    17    1
    30    16    11   ar
    31    17    18    1
    32    18    19    2
    33    18     2    1
    34    17    32    1
@<TRIPOS>MOLECULE
*****
 32 34 0 0 0
SMALL
GASTEIGER

@<TRIPOS>ATOM
      1 N          -0.0229    3.0825    0.4710 N.pl3   1  UNL11      -0.3465
      2 C          -0.9419    2.0045    0.4458 C.2     1  UNL11       0.1905
      3 C          -0.6602    0.8566   -0.2640 C.2     1  UNL11       0.0811
      4 N           0.5345    0.6772   -0.9985 N.pl3   1  UNL11      -0.3120
      5 C           0.7020    1.0225   -2.3498 C.ar    1  UNL11       0.0314
      6 C          -0.2980    1.5835   -3.1139 C.ar    1  UNL11      -0.0405
      7 C          -0.0611    1.9026   -4.4550 C.ar    1  UNL11      -0.0600
      8 C           1.1612    1.6657   -5.0329 C.ar    1  UNL11      -0.0616
      9 C           2.1611    1.1068   -4.2762 C.ar    1  UNL11      -0.0600
     10 C           1.9075    0.8023   -2.9652 C.ar    1  UNL11      -0.0405
     11 C          -1.5953   -0.1604   -0.2508 C.ar    1  UNL11       0.0938
     12 C          -1.3962   -1.3411   -0.9317 C.ar    1  UNL11      -0.0440
     13 C          -2.3458   -2.3402   -0.9019 C.ar    1  UNL11      -0.0606
     14 C          -3.5029   -2.1189   -0.1675 C.ar    1  UNL11      -0.0531
     15 C          -3.7287   -0.9492    0.5226 C.ar    1  UNL11       0.0348
     16 C          -2.7504    0.0427    0.4738 C.ar    1  UNL11       0.2757
     17 O          -2.9857    1.1506    1.1390 O.3     1  UNL11      -0.5167
     18 C          -2.1196    2.1293    1.1446 C.2     1  UNL11       0.5043
     19 O          -2.3998    3.1658    1.7995 O.2     1  UNL11      -0.1891
     20 H           0.3231    3.5205    1.3503 H       1  UNL11       0.1427
     21 H           0.3284    3.4605   -0.4519 H       1  UNL11       0.1427
     22 H           1.3345    0.2571   -0.4795 H       1  UNL11       0.1522
     23 H          -1.2729    1.7802   -2.6790 H       1  UNL11       0.0636
     24 H          -0.8331    2.3403   -5.0603 H       1  UNL11       0.0618
     25 H           1.3663    1.9060   -6.0727 H       1  UNL11       0.0618
     26 H           3.1356    0.9135   -4.7218 H       1  UNL11       0.0618
     27 H           2.7238    0.3596   -2.3929 H       1  UNL11       0.0636
     28 H          -0.5012   -1.5332   -1.5100 H       1  UNL11       0.0627
     29 H          -2.2466   -3.2850   -1.4143 H       1  UNL11       0.0618
     30 H          -4.2618   -2.9008   -0.1357 H       1  UNL11       0.0620
     31 H          -4.6412   -0.7953    1.0918 H       1  UNL11       0.0709
     32 H          -3.7867    1.2406    1.6168 H       1  UNL11       0.5656
@<TRIPOS>BOND
     1     1     2    1
     2     1    20    1
     3     1    21    1
     4     2     3    2
     5     3     4    1
     6     3    11    1
     7     4     5    1
     8     4    22    1
     9     5     6   ar
    10     6     7   ar
    11     6    23    1
    12     7     8   ar
    13     7    24    1
    14     8     9   ar
    15     8    25    1
    16     9    10   ar
    17     9    26    1
    18    10     5   ar
    19    10    27    1
    20    11    12   ar
    21    12    13   ar
    22    12    28    1
    23    13    14   ar
    24    13    29    1
    25    14    15   ar
    26    14    30    1
    27    15    16   ar
    28    15    31    1
    29    16    17    1
    30    16    11   ar
    31    17    18    1
    32    18    19    2
    33    18     2    1
    34    17    32    1
@<TRIPOS>MOLECULE
*****
 32 34 0 0 0
SMALL
GASTEIGER

@<TRIPOS>ATOM
      1 N          -0.0229    3.0825    0.4710 N.pl3   1  UNL11      -0.3465
      2 C          -0.9419    2.0045    0.4458 C.2     1  UNL11       0.1905
      3 C          -0.6602    0.8566   -0.2640 C.2     1  UNL11       0.0811
      4 N           0.5345    0.6772   -0.9985 N.pl3   1  UNL11      -0.3120
      5 C           0.7020    1.0225   -2.3498 C.ar    1  UNL11       0.0314
      6 C          -0.3294    1.0133   -3.2634 C.ar    1  UNL11      -0.0405
      7 C          -0.0905    1.3692   -4.5949 C.ar    1  UNL11      -0.0600
      8 C           1.1649    1.7316   -5.0156 C.ar    1  UNL11      -0.0616
      9 C           2.1961    1.7423   -4.1094 C.ar    1  UNL11      -0.0600
     10 C           1.9399    1.3904   -2.8110 C.ar    1  UNL11      -0.0405
     11 C          -1.5953   -0.1604   -0.2508 C.ar    1  UNL11       0.0938
     12 C          -1.3962   -1.3411   -0.9317 C.ar    1  UNL11      -0.0440
     13 C          -2.3458   -2.3402   -0.9019 C.ar    1  UNL11      -0.0606
     14 C          -3.5029   -2.1189   -0.1675 C.ar    1  UNL11      -0.0531
     15 C          -3.7287   -0.9492    0.5226 C.ar    1  UNL11       0.0348
     16 C          -2.7504    0.0427    0.4738 C.ar    1  UNL11       0.2757
     17 O          -2.9857    1.1506    1.1390 O.3     1  UNL11      -0.5167
     18 C          -2.1196    2.1293    1.1446 C.2     1  UNL11       0.5043
     19 O          -2.3998    3.1658    1.7995 O.2     1  UNL11      -0.1891
     20 H           0.3231    3.5205    1.3503 H       1  UNL11       0.1427
     21 H           0.3284    3.4605   -0.4519 H       1  UNL11       0.1427
     22 H           1.3345    0.2571   -0.4795 H       1  UNL11       0.1522
     23 H          -1.3307    0.7304   -2.9544 H       1  UNL11       0.0636
     24 H          -0.8867    1.3659   -5.3159 H       1  UNL11       0.0618
     25 H           1.3722    2.0115   -6.0450 H       1  UNL11       0.0618
     26 H           3.1970    2.0278   -4.4295 H       1  UNL11       0.0618
     27 H           2.7816    1.4097   -2.1174 H       1  UNL11       0.0636
     28 H          -0.5012   -1.5332   -1.5100 H       1  UNL11       0.0627
     29 H          -2.2466   -3.2850   -1.4143 H       1  UNL11       0.0618
     30 H          -4.2618   -2.9008   -0.1357 H       1  UNL11       0.0620
     31 H          -4.6412   -0.7953    1.0918 H       1  UNL11       0.0709
     32 H          -3.7867    1.2406    1.6168 H       1  UNL11       0.5656
@<TRIPOS>BOND
     1     1     2    1
     2     1    20    1
     3     1    21    1
     4     2     3    2
     5     3     4    1
     6     3    11    1
     7     4     5    1
     8     4    22    1
     9     5     6   ar
    10     6     7   ar
    11     6    23    1
    12     7     8   ar
    13     7    24    1
    14     8     9   ar
    15     8    25    1
    16     9    10   ar
    17     9    26    1
    18    10     5   ar
    19    10    27    1
    20    11    12   ar
    21    12    13   ar
    22    12    28    1
    23    13    14   ar
    24    13    29    1
    25    14    15   ar
    26    14    30    1
    27    15    16   ar
    28    15    31    1
    29    16    17    1
    30    16    11   ar
    31    17    18    1
    32    18    19    2
    33    18     2    1
    34    17    32    1
@<TRIPOS>MOLECULE
*****
 32 34 0 0 0
SMALL
GASTEIGER

@<TRIPOS>ATOM
      1 N          -0.0229    3.0825    0.4710 N.pl3   1  UNL11      -0.3465
      2 C          -0.9419    2.0045    0.4458 C.2     1  UNL11       0.1905
      3 C          -0.6602    0.8566   -0.2640 C.2     1  UNL11       0.0811
      4 N           0.5345    0.6772   -0.9985 N.pl3   1  UNL11      -0.3120
      5 C           1.5643    1.6278   -1.0952 C.ar    1  UNL11       0.0314
      6 C           2.8898    1.2888   -1.2587 C.ar    1  UNL11      -0.0405
      7 C           3.8639    2.2888   -1.3477 C.ar    1  UNL11      -0.0600
      8 C           3.5230    3.6164   -1.2745 C.ar    1  UNL11      -0.0616
      9 C           2.2038    3.9596   -1.1115 C.ar    1  UNL11      -0.0600
     10 C           1.2666    2.9646   -1.0267 C.ar    1  UNL11      -0.0405
     11 C          -1.5953   -0.1604   -0.2508 C.ar    1  UNL11       0.0938
     12 C          -1.3962   -1.3411   -0.9317 C.ar    1  UNL11      -0.0440
     13 C          -2.3458   -2.3402   -0.9019 C.ar    1  UNL11      -0.0606
     14 C          -3.5029   -2.1189   -0.1675 C.ar    1  UNL11      -0.0531
     15 C          -3.7287   -0.9492    0.5226 C.ar    1  UNL11       0.0348
     16 C          -2.7504    0.0427    0.4738 C.ar    1  UNL11       0.2757
     17 O          -2.9857    1.1506    1.1390 O.3     1  UNL11      -0.5167
     18 C          -2.1196    2.1293    1.1446 C.2     1  UNL11       0.5043
     19 O          -2.3998    3.1658    1.7995 O.2     1  UNL11      -0.1891
     20 H           0.3231    3.5205    1.3503 H       1  UNL11       0.1427
     21 H           0.3284    3.4605   -0.4519 H       1  UNL11       0.1427
     22 H           0.6363   -0.2330   -1.4954 H       1  UNL11       0.1522
     23 H           3.1837    0.2457   -1.3193 H       1  UNL11       0.0636
     24 H           4.9002    2.0365   -1.4753 H       1  UNL11       0.0618
     25 H           4.2637    4.4088   -1.3413 H       1  UNL11       0.0618
     26 H           1.9193    5.0090   -1.0519 H       1  UNL11       0.0618
     27 H           0.2281    3.2722   -0.8975 H       1  UNL11       0.0636
     28 H          -0.5012   -1.5332   -1.5100 H       1  UNL11       0.0627
     29 H          -2.2466   -3.2850   -1.4143 H       1  UNL11       0.0618
     30 H          -4.2618   -2.9008   -0.1357 H       1  UNL11       0.0620
     31 H          -4.6412   -0.7953    1.0918 H       1  UNL11       0.0709
     32 H          -3.7867    1.2406    1.6168 H       1  UNL11       0.5656
@<TRIPOS>BOND
     1     1     2    1
     2     1    20    1
     3     1    21    1
     4     2     3    2
     5     3     4    1
     6     3    11    1
     7     4     5    1
     8     4    22    1
     9     5     6   ar
    10     6     7   ar
    11     6    23    1
    12     7     8   ar
    13     7    24    1
    14     8     9   ar
    15     8    25    1
    16     9    10   ar
    17     9    26    1
    18    10     5   ar
    19    10    27    1
    20    11    12   ar
    21    12    13   ar
    22    12    28    1
    23    13    14   ar
    24    13    29    1
    25    14    15   ar
    26    14    30    1
    27    15    16   ar
    28    15    31    1
    29    16    17    1
    30    16    11   ar
    31    17    18    1
    32    18    19    2
    33    18     2    1
    34    17    32    1
@<TRIPOS>MOLECULE
*****
 32 34 0 0 0
SMALL
GASTEIGER

@<TRIPOS>ATOM
      1 N          -0.0229    3.0825    0.4710 N.pl3   1  UNL11      -0.3465
      2 C          -0.9419    2.0045    0.4458 C.2     1  UNL11       0.1905
      3 C          -0.6602    0.8566   -0.2640 C.2     1  UNL11       0.0811
      4 N           0.5345    0.6772   -0.9985 N.pl3   1  UNL11      -0.3120
      5 C           0.8501   -0.4707   -1.7443 C.ar    1  UNL11       0.0314
      6 C           2.1409   -0.9129   -1.9368 C.ar    1  UNL11      -0.0405
      7 C           2.3823   -2.0655   -2.6917 C.ar    1  UNL11      -0.0600
      8 C           1.3483   -2.7735   -3.2515 C.ar    1  UNL11      -0.0616
      9 C           0.0603   -2.3373   -3.0629 C.ar    1  UNL11      -0.0600
     10 C          -0.1534   -1.2065   -2.3203 C.ar    1  UNL11      -0.0405
     11 C          -1.5953   -0.1604   -0.2508 C.ar    1  UNL11       0.0938
     12 C          -1.3962   -1.3411   -0.9317 C.ar    1  UNL11      -0.0440
     13 C          -2.3458   -2.3402   -0.9019 C.ar    1  UNL11      -0.0606
     14 C          -3.5029   -2.1189   -0.1675 C.ar    1  UNL11      -0.0531
     15 C          -3.7287   -0.9492    0.5226 C.ar    1  UNL11       0.0348
     16 C          -2.7504    0.0427    0.4738 C.ar    1  UNL11       0.2757
     17 O          -2.9857    1.1506    1.1390 O.3     1  UNL11      -0.5167
     18 C          -2.1196    2.1293    1.1446 C.2     1  UNL11       0.5043
     19 O          -2.3998    3.1658    1.7995 O.2     1  UNL11      -0.1891
     20 H           0.3231    3.5205    1.3503 H       1  UNL11       0.1427
     21 H           0.3284    3.4605   -0.4519 H       1  UNL11       0.1427
     22 H           1.2145    1.4662   -0.9699 H       1  UNL11       0.1522
     23 H           2.9750   -0.3697   -1.5040 H       1  UNL11       0.0636
     24 H           3.3843   -2.4197   -2.8485 H       1  UNL11       0.0618
     25 H           1.5137   -3.6712   -3.8413 H       1  UNL11       0.0618
     26 H          -0.7695   -2.8894   -3.5012 H       1  UNL11       0.0618
     27 H          -1.1884   -0.8879   -2.1902 H       1  UNL11       0.0636
     28 H          -0.5012   -1.5332   -1.5100 H       1  UNL11       0.0627
     29 H          -2.2466   -3.2850   -1.4143 H       1  UNL11       0.0618
     30 H          -4.2618   -2.9008   -0.1357 H       1  UNL11       0.0620
     31 H          -4.6412   -0.7953    1.0918 H       1  UNL11       0.0709
     32 H          -3.7867    1.2406    1.6168 H       1  UNL11       0.5656
@<TRIPOS>BOND
     1     1     2    1
     2     1    20    1
     3     1    21    1
     4     2     3    2
     5     3     4    1
     6     3    11    1
     7     4     5    1
     8     4    22    1
     9     5     6   ar
    10     6     7   ar
    11     6    23    1
    12     7     8   ar
    13     7    24    1
    14     8     9   ar
    15     8    25    1
    16     9    10   ar
    17     9    26    1
    18    10     5   ar
    19    10    27    1
    20    11    12   ar
    21    12    13   ar
    22    12    28    1
    23    13    14   ar
    24    13    29    1
    25    14    15   ar
    26    14    30    1
    27    15    16   ar
    28    15    31    1
    29    16    17    1
    30    16    11   ar
    31    17    18    1
    32    18    19    2
    33    18     2    1
    34    17    32    1
@<TRIPOS>MOLECULE
*****
 32 34 0 0 0
SMALL
GASTEIGER

@<TRIPOS>ATOM
      1 N          -0.0229    3.0825    0.4710 N.pl3   1  UNL11      -0.3465
      2 C          -0.9419    2.0045    0.4458 C.2     1  UNL11       0.1905
      3 C          -0.6602    0.8566   -0.2640 C.2     1  UNL11       0.0811
      4 N           0.5345    0.6772   -0.9985 N.pl3   1  UNL11      -0.3120
      5 C           0.8501   -0.4707   -1.7443 C.ar    1  UNL11       0.0314
      6 C           2.0323   -0.6181   -2.4365 C.ar    1  UNL11      -0.0405
      7 C           2.2808   -1.7896   -3.1592 C.ar    1  UNL11      -0.0600
      8 C           1.3607   -2.8076   -3.1938 C.ar    1  UNL11      -0.0616
      9 C           0.1811   -2.6659   -2.5059 C.ar    1  UNL11      -0.0600
     10 C          -0.0416   -1.5107   -1.8049 C.ar    1  UNL11      -0.0405
     11 C          -1.5953   -0.1604   -0.2508 C.ar    1  UNL11       0.0938
     12 C          -1.3962   -1.3411   -0.9317 C.ar    1  UNL11      -0.0440
     13 C          -2.3458   -2.3402   -0.9019 C.ar    1  UNL11      -0.0606
     14 C          -3.5029   -2.1189   -0.1675 C.ar    1  UNL11      -0.0531
     15 C          -3.7287   -0.9492    0.5226 C.ar    1  UNL11       0.0348
     16 C          -2.7504    0.0427    0.4738 C.ar    1  UNL11       0.2757
     17 O          -2.9857    1.1506    1.1390 O.3     1  UNL11      -0.5167
     18 C          -2.1196    2.1293    1.1446 C.2     1  UNL11       0.5043
     19 O          -2.3998    3.1658    1.7995 O.2     1  UNL11      -0.1891
     20 H           0.3231    3.5205    1.3503 H       1  UNL11       0.1427
     21 H           0.3284    3.4605   -0.4519 H       1  UNL11       0.1427
     22 H           1.2145    1.4662   -0.9699 H       1  UNL11       0.1522
     23 H           2.7753    0.1732   -2.4241 H       1  UNL11       0.0636
     24 H           3.1989   -1.9158   -3.7026 H       1  UNL11       0.0618
     25 H           1.5338   -3.7258   -3.7488 H       1  UNL11       0.0618
     26 H          -0.5576   -3.4656   -2.5246 H       1  UNL11       0.0618
     27 H          -0.9887   -1.4309   -1.2698 H       1  UNL11       0.0636
     28 H          -0.5012   -1.5332   -1.5100 H       1  UNL11       0.0627
     29 H          -2.2466   -3.2850   -1.4143 H       1  UNL11       0.0618
     30 H          -4.2618   -2.9008   -0.1357 H       1  UNL11       0.0620
     31 H          -4.6412   -0.7953    1.0918 H       1  UNL11       0.0709
     32 H          -3.7867    1.2406    1.6168 H       1  UNL11       0.5656
@<TRIPOS>BOND
     1     1     2    1
     2     1    20    1
     3     1    21    1
     4     2     3    2
     5     3     4    1
     6     3    11    1
     7     4     5    1
     8     4    22    1
     9     5     6   ar
    10     6     7   ar
    11     6    23    1
    12     7     8   ar
    13     7    24    1
    14     8     9   ar
    15     8    25    1
    16     9    10   ar
    17     9    26    1
    18    10     5   ar
    19    10    27    1
    20    11    12   ar
    21    12    13   ar
    22    12    28    1
    23    13    14   ar
    24    13    29    1
    25    14    15   ar
    26    14    30    1
    27    15    16   ar
    28    15    31    1
    29    16    17    1
    30    16    11   ar
    31    17    18    1
    32    18    19    2
    33    18     2    1
    34    17    32    1
@<TRIPOS>MOLECULE
*****
 32 34 0 0 0
SMALL
GASTEIGER

@<TRIPOS>ATOM
      1 N          -0.0229    3.0825    0.4710 N.pl3   1  UNL11      -0.3465
      2 C          -0.9419    2.0045    0.4458 C.2     1  UNL11       0.1905
      3 C          -0.6602    0.8566   -0.2640 C.2     1  UNL11       0.0811
      4 N           0.5345    0.6772   -0.9985 N.pl3   1  UNL11      -0.3120
      5 C           0.9559    1.5027   -2.0542 C.ar    1  UNL11       0.0314
      6 C           2.1203    1.2889   -2.7593 C.ar    1  UNL11      -0.0405
      7 C           2.4788    2.1520   -3.8000 C.ar    1  UNL11      -0.0600
      8 C           1.6857    3.2202   -4.1375 C.ar    1  UNL11      -0.0616
      9 C           0.5245    3.4379   -3.4382 C.ar    1  UNL11      -0.0600
     10 C           0.1927    2.5805   -2.4231 C.ar    1  UNL11      -0.0405
     11 C          -1.5953   -0.1604   -0.2508 C.ar    1  UNL11       0.0938
     12 C          -1.3962   -1.3411   -0.9317 C.ar    1  UNL11      -0.0440
     13 C          -2.3458   -2.3402   -0.9019 C.ar    1  UNL11      -0.0606
     14 C          -3.5029   -2.1189   -0.1675 C.ar    1  UNL11      -0.0531
     15 C          -3.7287   -0.9492    0.5226 C.ar    1  UNL11       0.0348
     16 C          -2.7504    0.0427    0.4738 C.ar    1  UNL11       0.2757
     17 O          -2.9857    1.1506    1.1390 O.3     1  UNL11      -0.5167
     18 C          -2.1196    2.1293    1.1446 C.2     1  UNL11       0.5043
     19 O          -2.3998    3.1658    1.7995 O.2     1  UNL11      -0.1891
     20 H           0.3231    3.5205    1.3503 H       1  UNL11       0.1427
     21 H           0.3284    3.4605   -0.4519 H       1  UNL11       0.1427
     22 H           1.1289   -0.1317   -0.7189 H       1  UNL11       0.1522
     23 H           2.7637    0.4508   -2.5107 H       1  UNL11       0.0636
     24 H           3.3841    1.9953   -4.3566 H       1  UNL11       0.0618
     25 H           1.9455    3.9028   -4.9424 H       1  UNL11       0.0618
     26 H          -0.1141    4.2815   -3.6954 H       1  UNL11       0.0618
     27 H          -0.7363    2.7823   -1.8882 H       1  UNL11       0.0636
     28 H          -0.5012   -1.5332   -1.5100 H       1  UNL11       0.0627
     29 H          -2.2466   -3.2850   -1.4143 H       1  UNL11       0.0618
     30 H          -4.2618   -2.9008   -0.1357 H       1  UNL11       0.0620
     31 H          -4.6412   -0.7953    1.0918 H       1  UNL11       0.0709
     32 H          -3.7867    1.2406    1.6168 H       1  UNL11       0.5656
@<TRIPOS>BOND
     1     1     2    1
     2     1    20    1
     3     1    21    1
     4     2     3    2
     5     3     4    1
     6     3    11    1
     7     4     5    1
     8     4    22    1
     9     5     6   ar
    10     6     7   ar
    11     6    23    1
    12     7     8   ar
    13     7    24    1
    14     8     9   ar
    15     8    25    1
    16     9    10   ar
    17     9    26    1
    18    10     5   ar
    19    10    27    1
    20    11    12   ar
    21    12    13   ar
    22    12    28    1
    23    13    14   ar
    24    13    29    1
    25    14    15   ar
    26    14    30    1
    27    15    16   ar
    28    15    31    1
    29    16    17    1
    30    16    11   ar
    31    17    18    1
    32    18    19    2
    33    18     2    1
    34    17    32    1
@<TRIPOS>MOLECULE
*****
 32 34 0 0 0
SMALL
GASTEIGER

@<TRIPOS>ATOM
      1 N          -0.0229    3.0825    0.4710 N.pl3   1  UNL11      -0.3465
      2 C          -0.9419    2.0045    0.4458 C.2     1  UNL11       0.1905
      3 C          -0.6602    0.8566   -0.2640 C.2     1  UNL11       0.0811
      4 N           0.5345    0.6772   -0.9985 N.pl3   1  UNL11      -0.3120
      5 C           0.9559    1.5027   -2.0542 C.ar    1  UNL11       0.0314
      6 C           1.7131    1.0467   -3.1112 C.ar    1  UNL11      -0.0405
      7 C           2.0978    1.9254   -4.1293 C.ar    1  UNL11      -0.0600
      8 C           1.7328    3.2482   -4.0969 C.ar    1  UNL11      -0.0616
      9 C           0.9785    3.7078   -3.0459 C.ar    1  UNL11      -0.0600
     10 C           0.6128    2.8303   -2.0601 C.ar    1  UNL11      -0.0405
     11 C          -1.5953   -0.1604   -0.2508 C.ar    1  UNL11       0.0938
     12 C          -1.3962   -1.3411   -0.9317 C.ar    1  UNL11      -0.0440
     13 C          -2.3458   -2.3402   -0.9019 C.ar    1  UNL11      -0.0606
     14 C          -3.5029   -2.1189   -0.1675 C.ar    1  UNL11      -0.0531
     15 C          -3.7287   -0.9492    0.5226 C.ar    1  UNL11       0.0348
     16 C          -2.7504    0.0427    0.4738 C.ar    1  UNL11       0.2757
     17 O          -2.9857    1.1506    1.1390 O.3     1  UNL11      -0.5167
     18 C          -2.1196    2.1293    1.1446 C.2     1  UNL11       0.5043
     19 O          -2.3998    3.1658    1.7995 O.2     1  UNL11      -0.1891
     20 H           0.3231    3.5205    1.3503 H       1  UNL11       0.1427
     21 H           0.3284    3.4605   -0.4519 H       1  UNL11       0.1427
     22 H           1.1289   -0.1317   -0.7189 H       1  UNL11       0.1522
     23 H           2.0139    0.0048   -3.1588 H       1  UNL11       0.0636
     24 H           2.6880    1.5813   -4.9582 H       1  UNL11       0.0618
     25 H           2.0209    3.9476   -4.8772 H       1  UNL11       0.0618
     26 H           0.6818    4.7548   -3.0076 H       1  UNL11       0.0618
     27 H           0.0139    3.2284   -1.2400 H       1  UNL11       0.0636
     28 H          -0.5012   -1.5332   -1.5100 H       1  UNL11       0.0627
     29 H          -2.2466   -3.2850   -1.4143 H       1  UNL11       0.0618
     30 H          -4.2618   -2.9008   -0.1357 H       1  UNL11       0.0620
     31 H          -4.6412   -0.7953    1.0918 H       1  UNL11       0.0709
     32 H          -3.7867    1.2406    1.6168 H       1  UNL11       0.5656
@<TRIPOS>BOND
     1     1     2    1
     2     1    20    1
     3     1    21    1
     4     2     3    2
     5     3     4    1
     6     3    11    1
     7     4     5    1
     8     4    22    1
     9     5     6   ar
    10     6     7   ar
    11     6    23    1
    12     7     8   ar
    13     7    24    1
    14     8     9   ar
    15     8    25    1
    16     9    10   ar
    17     9    26    1
    18    10     5   ar
    19    10    27    1
    20    11    12   ar
    21    12    13   ar
    22    12    28    1
    23    13    14   ar
    24    13    29    1
    25    14    15   ar
    26    14    30    1
    27    15    16   ar
    28    15    31    1
    29    16    17    1
    30    16    11   ar
    31    17    18    1
    32    18    19    2
    33    18     2    1
    34    17    32    1
@<TRIPOS>MOLECULE
*****
 32 34 0 0 0
SMALL
GASTEIGER

@<TRIPOS>ATOM
      1 N          -0.0229    3.0825    0.4710 N.pl3   1  UNL11      -0.3465
      2 C          -0.9419    2.0045    0.4458 C.2     1  UNL11       0.1905
      3 C          -0.6602    0.8566   -0.2640 C.2     1  UNL11       0.0811
      4 N           0.5345    0.6772   -0.9985 N.pl3   1  UNL11      -0.3120
      5 C           1.8249    0.6952   -0.4435 C.ar    1  UNL11       0.0314
      6 C           2.9698    0.5320   -1.1927 C.ar    1  UNL11      -0.0405
      7 C           4.2236    0.5610   -0.5734 C.ar    1  UNL11      -0.0600
      8 C           4.3389    0.7508    0.7812 C.ar    1  UNL11      -0.0616
      9 C           3.2014    0.9137    1.5324 C.ar    1  UNL11      -0.0600
     10 C           1.9841    0.8819    0.9056 C.ar    1  UNL11      -0.0405
     11 C          -1.5953   -0.1604   -0.2508 C.ar    1  UNL11       0.0938
     12 C          -1.3962   -1.3411   -0.9317 C.ar    1  UNL11      -0.0440
     13 C          -2.3458   -2.3402   -0.9019 C.ar    1  UNL11      -0.0606
     14 C          -3.5029   -2.1189   -0.1675 C.ar    1  UNL11      -0.0531
     15 C          -3.7287   -0.9492    0.5226 C.ar    1  UNL11       0.0348
     16 C          -2.7504    0.0427    0.4738 C.ar    1  UNL11       0.2757
     17 O          -2.9857    1.1506    1.1390 O.3     1  UNL11      -0.5167
     18 C          -2.1196    2.1293    1.1446 C.2     1  UNL11       0.5043
     19 O          -2.3998    3.1658    1.7995 O.2     1  UNL11      -0.1891
     20 H           0.3231    3.5205    1.3503 H       1  UNL11       0.1427
     21 H           0.3284    3.4605   -0.4519 H       1  UNL11       0.1427
     22 H           0.4253    0.5221   -2.0231 H       1  UNL11       0.1522
     23 H           2.9039    0.3806   -2.2655 H       1  UNL11       0.0636
     24 H           5.1229    0.4351   -1.1472 H       1  UNL11       0.0618
     25 H           5.3029    0.7767    1.2822 H       1  UNL11       0.0618
     26 H           3.2782    1.0651    2.6079 H       1  UNL11       0.0618
     27 H           1.1010    1.0147    1.5320 H       1  UNL11       0.0636
     28 H          -0.5012   -1.5332   -1.5100 H       1  UNL11       0.0627
     29 H          -2.2466   -3.2850   -1.4143 H       1  UNL11       0.0618
     30 H          -4.2618   -2.9008   -0.1357 H       1  UNL11       0.0620
     31 H          -4.6412   -0.7953    1.0918 H       1  UNL11       0.0709
     32 H          -3.7867    1.2406    1.6168 H       1  UNL11       0.5656
@<TRIPOS>BOND
     1     1     2    1
     2     1    20    1
     3     1    21    1
     4     2     3    2
     5     3     4    1
     6     3    11    1
     7     4     5    1
     8     4    22    1
     9     5     6   ar
    10     6     7   ar
    11     6    23    1
    12     7     8   ar
    13     7    24    1
    14     8     9   ar
    15     8    25    1
    16     9    10   ar
    17     9    26    1
    18    10     5   ar
    19    10    27    1
    20    11    12   ar
    21    12    13   ar
    22    12    28    1
    23    13    14   ar
    24    13    29    1
    25    14    15   ar
    26    14    30    1
    27    15    16   ar
    28    15    31    1
    29    16    17    1
    30    16    11   ar
    31    17    18    1
    32    18    19    2
    33    18     2    1
    34    17    32    1
@<TRIPOS>MOLECULE
*****
 32 34 0 0 0
SMALL
GASTEIGER

@<TRIPOS>ATOM
      1 N          -0.0229    3.0825    0.4710 N.pl3   1  UNL11      -0.3465
      2 C          -0.9419    2.0045    0.4458 C.2     1  UNL11       0.1905
      3 C          -0.6602    0.8566   -0.2640 C.2     1  UNL11       0.0811
      4 N           0.5345    0.6772   -0.9985 N.pl3   1  UNL11      -0.3120
      5 C           1.8249    0.6952   -0.4435 C.ar    1  UNL11       0.0314
      6 C           2.9376    1.1188   -1.1370 C.ar    1  UNL11      -0.0405
      7 C           4.1936    1.1099   -0.5213 C.ar    1  UNL11      -0.0600
      8 C           4.3426    0.6830    0.7747 C.ar    1  UNL11      -0.0616
      9 C           3.2372    0.2598    1.4702 C.ar    1  UNL11      -0.0600
     10 C           2.0173    0.2767    0.8481 C.ar    1  UNL11      -0.0405
     11 C          -1.5953   -0.1604   -0.2508 C.ar    1  UNL11       0.0938
     12 C          -1.3962   -1.3411   -0.9317 C.ar    1  UNL11      -0.0440
     13 C          -2.3458   -2.3402   -0.9019 C.ar    1  UNL11      -0.0606
     14 C          -3.5029   -2.1189   -0.1675 C.ar    1  UNL11      -0.0531
     15 C          -3.7287   -0.9492    0.5226 C.ar    1  UNL11       0.0348
     16 C          -2.7504    0.0427    0.4738 C.ar    1  UNL11       0.2757
     17 O          -2.9857    1.1506    1.1390 O.3     1  UNL11      -0.5167
     18 C          -2.1196    2.1293    1.1446 C.2     1  UNL11       0.5043
     19 O          -2.3998    3.1658    1.7995 O.2     1  UNL11      -0.1891
     20 H           0.3231    3.5205    1.3503 H       1  UNL11       0.1427
     21 H           0.3284    3.4605   -0.4519 H       1  UNL11       0.1427
     22 H           0.4253    0.5221   -2.0231 H       1  UNL11       0.1522
     23 H           2.8448    1.4609   -2.1629 H       1  UNL11       0.0636
     24 H           5.0680    1.4380   -1.0520 H       1  UNL11       0.0618
     25 H           5.3089    0.6680    1.2718 H       1  UNL11       0.0618
     26 H           3.3410   -0.0815    2.4990 H       1  UNL11       0.0618
     27 H           1.1602   -0.0660    1.4293 H       1  UNL11       0.0636
     28 H          -0.5012   -1.5332   -1.5100 H       1  UNL11       0.0627
     29 H          -2.2466   -3.2850   -1.4143 H       1  UNL11       0.0618
     30 H          -4.2618   -2.9008   -0.1357 H       1  UNL11       0.0620
     31 H          -4.6412   -0.7953    1.0918 H       1  UNL11       0.0709
     32 H          -3.7867    1.2406    1.6168 H       1  UNL11       0.5656
@<TRIPOS>BOND
     1     1     2    1
     2     1    20    1
     3     1    21    1
     4     2     3    2
     5     3     4    1
     6     3    11    1
     7     4     5    1
     8     4    22    1
     9     5     6   ar
    10     6     7   ar
    11     6    23    1
    12     7     8   ar
    13     7    24    1
    14     8     9   ar
    15     8    25    1
    16     9    10   ar
    17     9    26    1
    18    10     5   ar
    19    10    27    1
    20    11    12   ar
    21    12    13   ar
    22    12    28    1
    23    13    14   ar
    24    13    29    1
    25    14    15   ar
    26    14    30    1
    27    15    16   ar
    28    15    31    1
    29    16    17    1
    30    16    11   ar
    31    17    18    1
    32    18    19    2
    33    18     2    1
    34    17    32    1
@<TRIPOS>MOLECULE
*****
 32 34 0 0 0
SMALL
GASTEIGER

@<TRIPOS>ATOM
      1 N          -0.0229    3.0825    0.4710 N.pl3   1  UNL11      -0.3465
      2 C          -0.9419    2.0045    0.4458 C.2     1  UNL11       0.1905
      3 C          -0.6602    0.8566   -0.2640 C.2     1  UNL11       0.0811
      4 N           0.5345    0.6772   -0.9985 N.pl3   1  UNL11      -0.3120
      5 C           1.8249    0.6952   -0.4435 C.ar    1  UNL11       0.0314
      6 C           2.0944    0.3042    0.8499 C.ar    1  UNL11      -0.0405
      7 C           3.4047    0.3479    1.3375 C.ar    1  UNL11      -0.0600
      8 C           4.4400    0.7773    0.5451 C.ar    1  UNL11      -0.0616
      9 C           4.1770    1.1682   -0.7443 C.ar    1  UNL11      -0.0600
     10 C           2.8870    1.1173   -1.2012 C.ar    1  UNL11      -0.0405
     11 C          -1.5953   -0.1604   -0.2508 C.ar    1  UNL11       0.0938
     12 C          -1.3962   -1.3411   -0.9317 C.ar    1  UNL11      -0.0440
     13 C          -2.3458   -2.3402   -0.9019 C.ar    1  UNL11      -0.0606
     14 C          -3.5029   -2.1189   -0.1675 C.ar    1  UNL11      -0.0531
     15 C          -3.7287   -0.9492    0.5226 C.ar    1  UNL11       0.0348
     16 C          -2.7504    0.0427    0.4738 C.ar    1  UNL11       0.2757
     17 O          -2.9857    1.1506    1.1390 O.3     1  UNL11      -0.5167
     18 C          -2.1196    2.1293    1.1446 C.2     1  UNL11       0.5043
     19 O          -2.3998    3.1658    1.7995 O.2     1  UNL11      -0.1891
     20 H           0.3231    3.5205    1.3503 H       1  UNL11       0.1427
     21 H           0.3284    3.4605   -0.4519 H       1  UNL11       0.1427
     22 H           0.4253    0.5221   -2.0231 H       1  UNL11       0.1522
     23 H           1.2922   -0.0393    1.4955 H       1  UNL11       0.0636
     24 H           3.6268    0.0454    2.3441 H       1  UNL11       0.0618
     25 H           5.4650    0.8191    0.9040 H       1  UNL11       0.0618
     26 H           4.9888    1.5110   -1.3839 H       1  UNL11       0.0618
     27 H           2.7132    1.4349   -2.2302 H       1  UNL11       0.0636
     28 H          -0.5012   -1.5332   -1.5100 H       1  UNL11       0.0627
     29 H          -2.2466   -3.2850   -1.4143 H       1  UNL11       0.0618
     30 H          -4.2618   -2.9008   -0.1357 H       1  UNL11       0.0620
     31 H          -4.6412   -0.7953    1.0918 H       1  UNL11       0.0709
     32 H          -3.7867    1.2406    1.6168 H       1  UNL11       0.5656
@<TRIPOS>BOND
     1     1     2    1
     2     1    20    1
     3     1    21    1
     4     2     3    2
     5     3     4    1
     6     3    11    1
     7     4     5    1
     8     4    22    1
     9     5     6   ar
    10     6     7   ar
    11     6    23    1
    12     7     8   ar
    13     7    24    1
    14     8     9   ar
    15     8    25    1
    16     9    10   ar
    17     9    26    1
    18    10     5   ar
    19    10    27    1
    20    11    12   ar
    21    12    13   ar
    22    12    28    1
    23    13    14   ar
    24    13    29    1
    25    14    15   ar
    26    14    30    1
    27    15    16   ar
    28    15    31    1
    29    16    17    1
    30    16    11   ar
    31    17    18    1
    32    18    19    2
    33    18     2    1
    34    17    32    1
@<TRIPOS>MOLECULE
*****
 32 34 0 0 0
SMALL
GASTEIGER

@<TRIPOS>ATOM
      1 N          -0.0229    3.0825    0.4710 N.pl3   1  UNL11      -0.3465
      2 C          -0.9419    2.0045    0.4458 C.2     1  UNL11       0.1905
      3 C          -0.6602    0.8566   -0.2640 C.2     1  UNL11       0.0811
      4 N           0.5345    0.6772   -0.9985 N.pl3   1  UNL11      -0.3120
      5 C           1.8249    0.6952   -0.4435 C.ar    1  UNL11       0.0314
      6 C           2.0652    0.8917    0.8990 C.ar    1  UNL11      -0.0405
      7 C           3.3774    0.8975    1.3834 C.ar    1  UNL11      -0.0600
      8 C           4.4434    0.7094    0.5394 C.ar    1  UNL11      -0.0616
      9 C           4.2097    0.5134   -0.7991 C.ar    1  UNL11      -0.0600
     10 C           2.9172    0.5114   -1.2519 C.ar    1  UNL11      -0.0405
     11 C          -1.5953   -0.1604   -0.2508 C.ar    1  UNL11       0.0938
     12 C          -1.3962   -1.3411   -0.9317 C.ar    1  UNL11      -0.0440
     13 C          -2.3458   -2.3402   -0.9019 C.ar    1  UNL11      -0.0606
     14 C          -3.5029   -2.1189   -0.1675 C.ar    1  UNL11      -0.0531
     15 C          -3.7287   -0.9492    0.5226 C.ar    1  UNL11       0.0348
     16 C          -2.7504    0.0427    0.4738 C.ar    1  UNL11       0.2757
     17 O          -2.9857    1.1506    1.1390 O.3     1  UNL11      -0.5167
     18 C          -2.1196    2.1293    1.1446 C.2     1  UNL11       0.5043
     19 O          -2.3998    3.1658    1.7995 O.2     1  UNL11      -0.1891
     20 H           0.3231    3.5205    1.3503 H       1  UNL11       0.1427
     21 H           0.3284    3.4605   -0.4519 H       1  UNL11       0.1427
     22 H           0.4253    0.5221   -2.0231 H       1  UNL11       0.1522
     23 H           1.2383    1.0425    1.5858 H       1  UNL11       0.0636
     24 H           3.5768    1.0496    2.4279 H       1  UNL11       0.0618
     25 H           5.4704    0.7103    0.8949 H       1  UNL11       0.0618
     26 H           5.0461    0.3629   -1.4799 H       1  UNL11       0.0618
     27 H           2.7672    0.3529   -2.3207 H       1  UNL11       0.0636
     28 H          -0.5012   -1.5332   -1.5100 H       1  UNL11       0.0627
     29 H          -2.2466   -3.2850   -1.4143 H       1  UNL11       0.0618
     30 H          -4.2618   -2.9008   -0.1357 H       1  UNL11       0.0620
     31 H          -4.6412   -0.7953    1.0918 H       1  UNL11       0.0709
     32 H          -3.7867    1.2406    1.6168 H       1  UNL11       0.5656
@<TRIPOS>BOND
     1     1     2    1
     2     1    20    1
     3     1    21    1
     4     2     3    2
     5     3     4    1
     6     3    11    1
     7     4     5    1
     8     4    22    1
     9     5     6   ar
    10     6     7   ar
    11     6    23    1
    12     7     8   ar
    13     7    24    1
    14     8     9   ar
    15     8    25    1
    16     9    10   ar
    17     9    26    1
    18    10     5   ar
    19    10    27    1
    20    11    12   ar
    21    12    13   ar
    22    12    28    1
    23    13    14   ar
    24    13    29    1
    25    14    15   ar
    26    14    30    1
    27    15    16   ar
    28    15    31    1
    29    16    17    1
    30    16    11   ar
    31    17    18    1
    32    18    19    2
    33    18     2    1
    34    17    32    1
@<TRIPOS>MOLECULE
*****
 32 34 0 0 0
SMALL
GASTEIGER

@<TRIPOS>ATOM
      1 N          -0.0229    3.0825    0.4710 N.pl3   1  UNL11      -0.3465
      2 C          -0.9419    2.0045    0.4458 C.2     1  UNL11       0.1905
      3 C          -0.6602    0.8566   -0.2640 C.2     1  UNL11       0.0811
      4 N           0.5345    0.6772   -0.9985 N.pl3   1  UNL11      -0.3120
      5 C           1.8249    0.6952   -0.4435 C.ar    1  UNL11       0.0314
      6 C           2.1542    1.4302    0.6744 C.ar    1  UNL11      -0.0405
      7 C           3.4607    1.4013    1.1733 C.ar    1  UNL11      -0.0600
      8 C           4.4331    0.6472    0.5653 C.ar    1  UNL11      -0.0616
      9 C           4.1104   -0.0870   -0.5489 C.ar    1  UNL11      -0.0600
     10 C           2.8254   -0.0442   -1.0204 C.ar    1  UNL11      -0.0405
     11 C          -1.5953   -0.1604   -0.2508 C.ar    1  UNL11       0.0938
     12 C          -1.3962   -1.3411   -0.9317 C.ar    1  UNL11      -0.0440
     13 C          -2.3458   -2.3402   -0.9019 C.ar    1  UNL11      -0.0606
     14 C          -3.5029   -2.1189   -0.1675 C.ar    1  UNL11      -0.0531
     15 C          -3.7287   -0.9492    0.5226 C.ar    1  UNL11       0.0348
     16 C          -2.7504    0.0427    0.4738 C.ar    1  UNL11       0.2757
     17 O          -2.9857    1.1506    1.1390 O.3     1  UNL11      -0.5167
     18 C          -2.1196    2.1293    1.1446 C.2     1  UNL11       0.5043
     19 O          -2.3998    3.1658    1.7995 O.2     1  UNL11      -0.1891
     20 H           0.3231    3.5205    1.3503 H       1  UNL11       0.1427
     21 H           0.3284    3.4605   -0.4519 H       1  UNL11       0.1427
     22 H           0.4253    0.5221   -2.0231 H       1  UNL11       0.1522
     23 H           1.4023    2.0341    1.1725 H       1  UNL11       0.0636
     24 H           3.7290    1.9701    2.0442 H       1  UNL11       0.0618
     25 H           5.4540    0.6105    0.9364 H       1  UNL11       0.0618
     26 H           4.8721   -0.6897   -1.0412 H       1  UNL11       0.0618
     27 H           2.6032   -0.6392   -1.9072 H       1  UNL11       0.0636
     28 H          -0.5012   -1.5332   -1.5100 H       1  UNL11       0.0627
     29 H          -2.2466   -3.2850   -1.4143 H       1  UNL11       0.0618
     30 H          -4.2618   -2.9008   -0.1357 H       1  UNL11       0.0620
     31 H          -4.6412   -0.7953    1.0918 H       1  UNL11       0.0709
     32 H          -3.7867    1.2406    1.6168 H       1  UNL11       0.5656
@<TRIPOS>BOND
     1     1     2    1
     2     1    20    1
     3     1    21    1
     4     2     3    2
     5     3     4    1
     6     3    11    1
     7     4     5    1
     8     4    22    1
     9     5     6   ar
    10     6     7   ar
    11     6    23    1
    12     7     8   ar
    13     7    24    1
    14     8     9   ar
    15     8    25    1
    16     9    10   ar
    17     9    26    1
    18    10     5   ar
    19    10    27    1
    20    11    12   ar
    21    12    13   ar
    22    12    28    1
    23    13    14   ar
    24    13    29    1
    25    14    15   ar
    26    14    30    1
    27    15    16   ar
    28    15    31    1
    29    16    17    1
    30    16    11   ar
    31    17    18    1
    32    18    19    2
    33    18     2    1
    34    17    32    1
@<TRIPOS>MOLECULE
*****
 32 34 0 0 0
SMALL
GASTEIGER

@<TRIPOS>ATOM
      1 N          -0.0229    3.0825    0.4710 N.pl3   1  UNL11      -0.3465
      2 C          -0.9419    2.0045    0.4458 C.2     1  UNL11       0.1905
      3 C          -0.6602    0.8566   -0.2640 C.2     1  UNL11       0.0811
      4 N           0.5345    0.6772   -0.9985 N.pl3   1  UNL11      -0.3120
      5 C           0.8501   -0.4707   -1.7443 C.ar    1  UNL11       0.0314
      6 C          -0.1028   -1.2679   -2.3400 C.ar    1  UNL11      -0.0405
      7 C           0.2834   -2.3975   -3.0690 C.ar    1  UNL11      -0.0600
      8 C           1.6075   -2.7326   -3.2047 C.ar    1  UNL11      -0.0616
      9 C           2.5611   -1.9419   -2.6131 C.ar    1  UNL11      -0.0600
     10 C           2.1608   -0.8406   -1.9041 C.ar    1  UNL11      -0.0405
     11 C          -1.5953   -0.1604   -0.2508 C.ar    1  UNL11       0.0938
     12 C          -1.3962   -1.3411   -0.9317 C.ar    1  UNL11      -0.0440
     13 C          -2.3458   -2.3402   -0.9019 C.ar    1  UNL11      -0.0606
     14 C          -3.5029   -2.1189   -0.1675 C.ar    1  UNL11      -0.0531
     15 C          -3.7287   -0.9492    0.5226 C.ar    1  UNL11       0.0348
     16 C          -2.7504    0.0427    0.4738 C.ar    1  UNL11       0.2757
     17 O          -2.9857    1.1506    1.1390 O.3     1  UNL11      -0.5167
     18 C          -2.1196    2.1293    1.1446 C.2     1  UNL11       0.5043
     19 O          -2.3998    3.1658    1.7995 O.2     1  UNL11      -0.1891
     20 H           0.3231    3.5205    1.3503 H       1  UNL11       0.1427
     21 H           0.3284    3.4605   -0.4519 H       1  UNL11       0.1427
     22 H           1.2145    1.4662   -0.9699 H       1  UNL11       0.1522
     23 H          -1.1562   -1.0231   -2.2467 H       1  UNL11       0.0636
     24 H          -0.4506   -3.0263   -3.5378 H       1  UNL11       0.0618
     25 H           1.9291   -3.6056   -3.7665 H       1  UNL11       0.0618
     26 H           3.6152   -2.1960   -2.7127 H       1  UNL11       0.0618
     27 H           2.9440   -0.2344   -1.4470 H       1  UNL11       0.0636
     28 H          -0.5012   -1.5332   -1.5100 H       1  UNL11       0.0627
     29 H          -2.2466   -3.2850   -1.4143 H       1  UNL11       0.0618
     30 H          -4.2618   -2.9008   -0.1357 H       1  UNL11       0.0620
     31 H          -4.6412   -0.7953    1.0918 H       1  UNL11       0.0709
     32 H          -3.7867    1.2406    1.6168 H       1  UNL11       0.5656
@<TRIPOS>BOND
     1     1     2    1
     2     1    20    1
     3     1    21    1
     4     2     3    2
     5     3     4    1
     6     3    11    1
     7     4     5    1
     8     4    22    1
     9     5     6   ar
    10     6     7   ar
    11     6    23    1
    12     7     8   ar
    13     7    24    1
    14     8     9   ar
    15     8    25    1
    16     9    10   ar
    17     9    26    1
    18    10     5   ar
    19    10    27    1
    20    11    12   ar
    21    12    13   ar
    22    12    28    1
    23    13    14   ar
    24    13    29    1
    25    14    15   ar
    26    14    30    1
    27    15    16   ar
    28    15    31    1
    29    16    17    1
    30    16    11   ar
    31    17    18    1
    32    18    19    2
    33    18     2    1
    34    17    32    1
@<TRIPOS>MOLECULE
*****
 32 34 0 0 0
SMALL
GASTEIGER

@<TRIPOS>ATOM
      1 N          -0.0229    3.0825    0.4710 N.pl3   1  UNL11      -0.3465
      2 C          -0.9419    2.0045    0.4458 C.2     1  UNL11       0.1905
      3 C          -0.6602    0.8566   -0.2640 C.2     1  UNL11       0.0811
      4 N           0.5345    0.6772   -0.9985 N.pl3   1  UNL11      -0.3120
      5 C           0.8501   -0.4707   -1.7443 C.ar    1  UNL11       0.0314
      6 C           0.3917   -1.7292   -1.4207 C.ar    1  UNL11      -0.0405
      7 C           0.7460   -2.8290   -2.2090 C.ar    1  UNL11      -0.0600
      8 C           1.5505   -2.6793   -3.3110 C.ar    1  UNL11      -0.0616
      9 C           2.0101   -1.4276   -3.6378 C.ar    1  UNL11      -0.0600
     10 C           1.6509   -0.3648   -2.8523 C.ar    1  UNL11      -0.0405
     11 C          -1.5953   -0.1604   -0.2508 C.ar    1  UNL11       0.0938
     12 C          -1.3962   -1.3411   -0.9317 C.ar    1  UNL11      -0.0440
     13 C          -2.3458   -2.3402   -0.9019 C.ar    1  UNL11      -0.0606
     14 C          -3.5029   -2.1189   -0.1675 C.ar    1  UNL11      -0.0531
     15 C          -3.7287   -0.9492    0.5226 C.ar    1  UNL11       0.0348
     16 C          -2.7504    0.0427    0.4738 C.ar    1  UNL11       0.2757
     17 O          -2.9857    1.1506    1.1390 O.3     1  UNL11      -0.5167
     18 C          -2.1196    2.1293    1.1446 C.2     1  UNL11       0.5043
     19 O          -2.3998    3.1658    1.7995 O.2     1  UNL11      -0.1891
     20 H           0.3231    3.5205    1.3503 H       1  UNL11       0.1427
     21 H           0.3284    3.4605   -0.4519 H       1  UNL11       0.1427
     22 H           1.2145    1.4662   -0.9699 H       1  UNL11       0.1522
     23 H          -0.2458   -1.8725   -0.5540 H       1  UNL11       0.0636
     24 H           0.3945   -3.8148   -1.9665 H       1  UNL11       0.0618
     25 H           1.8377   -3.5202   -3.9367 H       1  UNL11       0.0618
     26 H           2.6491   -1.2944   -4.5094 H       1  UNL11       0.0618
     27 H           2.0335    0.6153   -3.1403 H       1  UNL11       0.0636
     28 H          -0.5012   -1.5332   -1.5100 H       1  UNL11       0.0627
     29 H          -2.2466   -3.2850   -1.4143 H       1  UNL11       0.0618
     30 H          -4.2618   -2.9008   -0.1357 H       1  UNL11       0.0620
     31 H          -4.6412   -0.7953    1.0918 H       1  UNL11       0.0709
     32 H          -3.7867    1.2406    1.6168 H       1  UNL11       0.5656
@<TRIPOS>BOND
     1     1     2    1
     2     1    20    1
     3     1    21    1
     4     2     3    2
     5     3     4    1
     6     3    11    1
     7     4     5    1
     8     4    22    1
     9     5     6   ar
    10     6     7   ar
    11     6    23    1
    12     7     8   ar
    13     7    24    1
    14     8     9   ar
    15     8    25    1
    16     9    10   ar
    17     9    26    1
    18    10     5   ar
    19    10    27    1
    20    11    12   ar
    21    12    13   ar
    22    12    28    1
    23    13    14   ar
    24    13    29    1
    25    14    15   ar
    26    14    30    1
    27    15    16   ar
    28    15    31    1
    29    16    17    1
    30    16    11   ar
    31    17    18    1
    32    18    19    2
    33    18     2    1
    34    17    32    1
@<TRIPOS>MOLECULE
*****
 32 34 0 0 0
SMALL
GASTEIGER

@<TRIPOS>ATOM
      1 N          -0.0229    3.0825    0.4710 N.pl3   1  UNL11      -0.3465
      2 C          -0.9419    2.0045    0.4458 C.2     1  UNL11       0.1905
      3 C          -0.6602    0.8566   -0.2640 C.2     1  UNL11       0.0811
      4 N           0.5345    0.6772   -0.9985 N.pl3   1  UNL11      -0.3120
      5 C           0.8501   -0.4707   -1.7443 C.ar    1  UNL11       0.0314
      6 C           0.0126   -1.5606   -1.8406 C.ar    1  UNL11      -0.0405
      7 C           0.3914   -2.6713   -2.6018 C.ar    1  UNL11      -0.0600
      8 C           1.5942   -2.6988   -3.2624 C.ar    1  UNL11      -0.0616
      9 C           2.4325   -1.6156   -3.1697 C.ar    1  UNL11      -0.0600
     10 C           2.0418   -0.5387   -2.4192 C.ar    1  UNL11      -0.0405
     11 C          -1.5953   -0.1604   -0.2508 C.ar    1  UNL11       0.0938
     12 C          -1.3962   -1.3411   -0.9317 C.ar    1  UNL11      -0.0440
     13 C          -2.3458   -2.3402   -0.9019 C.ar    1  UNL11      -0.0606
     14 C          -3.5029   -2.1189   -0.1675 C.ar    1  UNL11      -0.0531
     15 C          -3.7287   -0.9492    0.5226 C.ar    1  UNL11       0.0348
     16 C          -2.7504    0.0427    0.4738 C.ar    1  UNL11       0.2757
     17 O          -2.9857    1.1506    1.1390 O.3     1  UNL11      -0.5167
     18 C          -2.1196    2.1293    1.1446 C.2     1  UNL11       0.5043
     19 O          -2.3998    3.1658    1.7995 O.2     1  UNL11      -0.1891
     20 H           0.3231    3.5205    1.3503 H       1  UNL11       0.1427
     21 H           0.3284    3.4605   -0.4519 H       1  UNL11       0.1427
     22 H           1.2145    1.4662   -0.9699 H       1  UNL11       0.1522
     23 H          -0.9437   -1.5621   -1.3272 H       1  UNL11       0.0636
     24 H          -0.2533   -3.5266   -2.6842 H       1  UNL11       0.0618
     25 H           1.9078   -3.5514   -3.8590 H       1  UNL11       0.0618
     26 H           3.3897   -1.6239   -3.6887 H       1  UNL11       0.0618
     27 H           2.7315    0.3048   -2.3669 H       1  UNL11       0.0636
     28 H          -0.5012   -1.5332   -1.5100 H       1  UNL11       0.0627
     29 H          -2.2466   -3.2850   -1.4143 H       1  UNL11       0.0618
     30 H          -4.2618   -2.9008   -0.1357 H       1  UNL11       0.0620
     31 H          -4.6412   -0.7953    1.0918 H       1  UNL11       0.0709
     32 H          -3.7867    1.2406    1.6168 H       1  UNL11       0.5656
@<TRIPOS>BOND
     1     1     2    1
     2     1    20    1
     3     1    21    1
     4     2     3    2
     5     3     4    1
     6     3    11    1
     7     4     5    1
     8     4    22    1
     9     5     6   ar
    10     6     7   ar
    11     6    23    1
    12     7     8   ar
    13     7    24    1
    14     8     9   ar
    15     8    25    1
    16     9    10   ar
    17     9    26    1
    18    10     5   ar
    19    10    27    1
    20    11    12   ar
    21    12    13   ar
    22    12    28    1
    23    13    14   ar
    24    13    29    1
    25    14    15   ar
    26    14    30    1
    27    15    16   ar
    28    15    31    1
    29    16    17    1
    30    16    11   ar
    31    17    18    1
    32    18    19    2
    33    18     2    1
    34    17    32    1
