@<TRIPOS>MOLECULE
*****
 41 43 0 0 0
SMALL
GASTEIGER

@<TRIPOS>ATOM
      1 N           5.6196    2.1480    3.1400 N.am    1  UNL11      -0.3253
      2 C           4.6600    1.5592    2.2859 C.2     1  UNL11       0.2415
      3 O           4.5441    0.3090    2.2934 O.2     1  UNL11      -0.2704
      4 C           3.8193    2.3725    1.4129 C.ar    1  UNL11       0.0369
      5 C           3.9535    3.7449    1.4134 C.ar    1  UNL11      -0.0496
      6 C           3.1464    4.4872    0.5788 C.ar    1  UNL11      -0.0606
      7 C           2.2128    3.8559   -0.2491 C.ar    1  UNL11      -0.0525
      8 C           2.0637    2.4883   -0.2641 C.ar    1  UNL11       0.0196
      9 C           1.1136    1.7487   -1.0956 C.3     1  UNL11       0.1985
     10 N          -0.1713    1.5246   -0.4883 N.am    1  UNL11      -0.0155
     11 N          -0.9308    0.4971   -0.7253 N.2     1  UNL11      -0.0009
     12 C          -2.1362    0.2496   -0.1787 C.2     1  UNL11       0.1377
     13 C          -2.8337   -0.9451   -0.5639 C.ar    1  UNL11       0.0061
     14 C          -4.2094   -1.0092   -0.5876 C.ar    1  UNL11      -0.0524
     15 C          -4.8532   -2.1788   -0.9646 C.ar    1  UNL11      -0.0611
     16 C          -4.1345   -3.2881   -1.3191 C.ar    1  UNL11      -0.0617
     17 C          -2.7609   -3.2441   -1.3018 C.ar    1  UNL11      -0.0611
     18 C          -2.1330   -2.0927   -0.9307 C.ar    1  UNL11      -0.0524
     19 C          -2.6113    1.1660    0.7131 C.2     1  UNL11      -0.0084
     20 C          -1.8354    2.2799    0.9980 C.2     1  UNL11       0.1730
     21 C          -2.3568    3.2648    1.9629 C.3     1  UNL11       0.4270
     22 F          -1.4643    4.3228    2.1417 F       1  UNL11      -0.1655
     23 F          -2.6163    2.6750    3.1825 F       1  UNL11      -0.1655
     24 F          -3.5669    3.7270    1.4752 F       1  UNL11      -0.1655
     25 C          -0.6184    2.4429    0.3881 C.2     1  UNL11       0.4446
     26 O           0.0366    3.4780    0.6916 O.2     1  UNL11      -0.2116
     27 C           2.8937    1.7722    0.5899 C.ar    1  UNL11      -0.0404
     28 H           5.5767    1.9517    4.1533 H       1  UNL11       0.1453
     29 H           6.3448    2.7629    2.7363 H       1  UNL11       0.1453
     30 H           4.6864    4.2155    2.0656 H       1  UNL11       0.0625
     31 H           3.2311    5.5716    0.5590 H       1  UNL11       0.0618
     32 H           1.5749    4.4330   -0.9090 H       1  UNL11       0.0622
     33 H           1.6057    0.7668   -1.3593 H       1  UNL11       0.1103
     34 H           0.9428    2.2852   -2.0514 H       1  UNL11       0.1103
     35 H          -4.8287   -0.1670   -0.3186 H       1  UNL11       0.0624
     36 H          -5.9313   -2.1895   -0.9704 H       1  UNL11       0.0618
     37 H          -4.6600   -4.2109   -1.6165 H       1  UNL11       0.0618
     38 H          -2.2362   -4.1454   -1.5900 H       1  UNL11       0.0618
     39 H          -1.0654   -2.0393   -0.9111 H       1  UNL11       0.0624
     40 H          -3.5732    1.0292    1.1897 H       1  UNL11       0.0650
     41 H           2.8028    0.6944    0.6031 H       1  UNL11       0.0630
@<TRIPOS>BOND
     1     1     2   am
     2     1    28    1
     3     1    29    1
     4     2     3    2
     5     2     4    1
     6     4     5   ar
     7     5     6   ar
     8     5    30    1
     9     6     7   ar
    10     6    31    1
    11     7     8   ar
    12     7    32    1
    13     8     9    1
    14     8    27   ar
    15     9    10    1
    16     9    33    1
    17     9    34    1
    18    10    11    1
    19    11    12    2
    20    12    13    1
    21    12    19    1
    22    13    14   ar
    23    14    15   ar
    24    14    35    1
    25    15    16   ar
    26    15    36    1
    27    16    17   ar
    28    16    37    1
    29    17    18   ar
    30    17    38    1
    31    18    13   ar
    32    18    39    1
    33    19    20    2
    34    19    40    1
    35    20    21    1
    36    20    25    1
    37    21    22    1
    38    21    23    1
    39    21    24    1
    40    25    26    2
    41    25    10   am
    42    27     4   ar
    43    27    41    1
@<TRIPOS>MOLECULE
*****
 41 43 0 0 0
SMALL
GASTEIGER

@<TRIPOS>ATOM
      1 N          -0.2236    7.7261   -2.0369 N.am    1  UNL11      -0.3253
      2 C          -0.4316    6.3399   -1.8571 C.2     1  UNL11       0.2415
      3 O          -1.6099    5.9068   -1.8825 O.2     1  UNL11      -0.2704
      4 C           0.6860    5.4251   -1.6465 C.ar    1  UNL11       0.0369
      5 C           1.9763    5.9109   -1.6218 C.ar    1  UNL11      -0.0496
      6 C           3.0117    5.0239   -1.4210 C.ar    1  UNL11      -0.0606
      7 C           2.7526    3.6608   -1.2465 C.ar    1  UNL11      -0.0525
      8 C           1.4727    3.1567   -1.2679 C.ar    1  UNL11       0.0196
      9 C           1.1136    1.7487   -1.0956 C.3     1  UNL11       0.1985
     10 N          -0.1713    1.5246   -0.4883 N.am    1  UNL11      -0.0155
     11 N          -0.9308    0.4971   -0.7253 N.2     1  UNL11      -0.0009
     12 C          -2.1362    0.2496   -0.1787 C.2     1  UNL11       0.1377
     13 C          -2.8337   -0.9451   -0.5639 C.ar    1  UNL11       0.0061
     14 C          -4.2094   -1.0092   -0.5876 C.ar    1  UNL11      -0.0524
     15 C          -4.8532   -2.1788   -0.9646 C.ar    1  UNL11      -0.0611
     16 C          -4.1345   -3.2881   -1.3191 C.ar    1  UNL11      -0.0617
     17 C          -2.7609   -3.2441   -1.3018 C.ar    1  UNL11      -0.0611
     18 C          -2.1330   -2.0927   -0.9307 C.ar    1  UNL11      -0.0524
     19 C          -2.6113    1.1660    0.7131 C.2     1  UNL11      -0.0084
     20 C          -1.8354    2.2799    0.9980 C.2     1  UNL11       0.1730
     21 C          -2.3568    3.2648    1.9629 C.3     1  UNL11       0.4270
     22 F          -1.4643    4.3228    2.1417 F       1  UNL11      -0.1655
     23 F          -2.6163    2.6750    3.1825 F       1  UNL11      -0.1655
     24 F          -3.5669    3.7270    1.4752 F       1  UNL11      -0.1655
     25 C          -0.6184    2.4429    0.3881 C.2     1  UNL11       0.4446
     26 O           0.0366    3.4780    0.6916 O.2     1  UNL11      -0.2116
     27 C           0.4541    4.0796   -1.4725 C.ar    1  UNL11      -0.0404
     28 H          -0.5920    8.1824   -2.8874 H       1  UNL11       0.1453
     29 H           0.2921    8.2567   -1.3161 H       1  UNL11       0.1453
     30 H           2.1553    6.9752   -1.7598 H       1  UNL11       0.0625
     31 H           4.0393    5.3799   -1.3970 H       1  UNL11       0.0618
     32 H           3.5617    2.9570   -1.0872 H       1  UNL11       0.0622
     33 H           1.9331    1.2757   -0.4787 H       1  UNL11       0.1103
     34 H           1.1149    1.2305   -2.0764 H       1  UNL11       0.1103
     35 H          -4.8287   -0.1670   -0.3186 H       1  UNL11       0.0624
     36 H          -5.9313   -2.1895   -0.9704 H       1  UNL11       0.0618
     37 H          -4.6600   -4.2109   -1.6165 H       1  UNL11       0.0618
     38 H          -2.2362   -4.1454   -1.5900 H       1  UNL11       0.0618
     39 H          -1.0654   -2.0393   -0.9111 H       1  UNL11       0.0624
     40 H          -3.5732    1.0292    1.1897 H       1  UNL11       0.0650
     41 H          -0.5648    3.7171   -1.4949 H       1  UNL11       0.0630
@<TRIPOS>BOND
     1     1     2   am
     2     1    28    1
     3     1    29    1
     4     2     3    2
     5     2     4    1
     6     4     5   ar
     7     5     6   ar
     8     5    30    1
     9     6     7   ar
    10     6    31    1
    11     7     8   ar
    12     7    32    1
    13     8     9    1
    14     8    27   ar
    15     9    10    1
    16     9    33    1
    17     9    34    1
    18    10    11    1
    19    11    12    2
    20    12    13    1
    21    12    19    1
    22    13    14   ar
    23    14    15   ar
    24    14    35    1
    25    15    16   ar
    26    15    36    1
    27    16    17   ar
    28    16    37    1
    29    17    18   ar
    30    17    38    1
    31    18    13   ar
    32    18    39    1
    33    19    20    2
    34    19    40    1
    35    20    21    1
    36    20    25    1
    37    21    22    1
    38    21    23    1
    39    21    24    1
    40    25    26    2
    41    25    10   am
    42    27     4   ar
    43    27    41    1
@<TRIPOS>MOLECULE
*****
 41 43 0 0 0
SMALL
GASTEIGER

@<TRIPOS>ATOM
      1 N           1.7294    0.3554    3.8526 N.am    1  UNL11      -0.3253
      2 C           3.0018    0.5267    3.2620 C.2     1  UNL11       0.2415
      3 O           4.0003    0.6227    4.0171 O.2     1  UNL11      -0.2704
      4 C           3.1640    0.5918    1.8129 C.ar    1  UNL11       0.0369
      5 C           4.3309    0.1426    1.2313 C.ar    1  UNL11      -0.0496
      6 C           4.4561    0.2163   -0.1391 C.ar    1  UNL11      -0.0606
      7 C           3.4178    0.7366   -0.9180 C.ar    1  UNL11      -0.0525
      8 C           2.2463    1.1898   -0.3569 C.ar    1  UNL11       0.0196
      9 C           1.1136    1.7487   -1.0956 C.3     1  UNL11       0.1985
     10 N          -0.1713    1.5246   -0.4883 N.am    1  UNL11      -0.0155
     11 N          -0.9308    0.4971   -0.7253 N.2     1  UNL11      -0.0009
     12 C          -2.1362    0.2496   -0.1787 C.2     1  UNL11       0.1377
     13 C          -2.8337   -0.9451   -0.5639 C.ar    1  UNL11       0.0061
     14 C          -4.0768   -1.2569   -0.0594 C.ar    1  UNL11      -0.0524
     15 C          -4.7245   -2.4193   -0.4517 C.ar    1  UNL11      -0.0611
     16 C          -4.1412   -3.2757   -1.3456 C.ar    1  UNL11      -0.0617
     17 C          -2.9010   -2.9822   -1.8603 C.ar    1  UNL11      -0.0611
     18 C          -2.2687   -1.8390   -1.4717 C.ar    1  UNL11      -0.0524
     19 C          -2.6113    1.1660    0.7131 C.2     1  UNL11      -0.0084
     20 C          -1.8354    2.2799    0.9980 C.2     1  UNL11       0.1730
     21 C          -2.3568    3.2648    1.9629 C.3     1  UNL11       0.4270
     22 F          -1.4643    4.3228    2.1417 F       1  UNL11      -0.1655
     23 F          -2.6163    2.6750    3.1825 F       1  UNL11      -0.1655
     24 F          -3.5669    3.7270    1.4752 F       1  UNL11      -0.1655
     25 C          -0.6184    2.4429    0.3881 C.2     1  UNL11       0.4446
     26 O           0.0366    3.4780    0.6916 O.2     1  UNL11      -0.2116
     27 C           2.1551    1.1002    1.0269 C.ar    1  UNL11      -0.0404
     28 H           1.5778   -0.4386    4.4958 H       1  UNL11       0.1453
     29 H           0.9757    1.0260    3.6308 H       1  UNL11       0.1453
     30 H           5.1261   -0.2586    1.8563 H       1  UNL11       0.0625
     31 H           5.3658   -0.1309   -0.6241 H       1  UNL11       0.0618
     32 H           3.5086    0.7971   -1.9967 H       1  UNL11       0.0622
     33 H           1.1471    1.3015   -2.1323 H       1  UNL11       0.1103
     34 H           1.2392    2.8441   -1.2180 H       1  UNL11       0.1103
     35 H          -4.5861   -0.6204    0.6482 H       1  UNL11       0.0624
     36 H          -5.6964   -2.6284   -0.0345 H       1  UNL11       0.0618
     37 H          -4.6679   -4.1961   -1.6483 H       1  UNL11       0.0618
     38 H          -2.4804   -3.6890   -2.5634 H       1  UNL11       0.0618
     39 H          -1.3038   -1.5937   -1.8613 H       1  UNL11       0.0624
     40 H          -3.5732    1.0292    1.1897 H       1  UNL11       0.0650
     41 H           1.2470    1.4477    1.5010 H       1  UNL11       0.0630
@<TRIPOS>BOND
     1     1     2   am
     2     1    28    1
     3     1    29    1
     4     2     3    2
     5     2     4    1
     6     4     5   ar
     7     5     6   ar
     8     5    30    1
     9     6     7   ar
    10     6    31    1
    11     7     8   ar
    12     7    32    1
    13     8     9    1
    14     8    27   ar
    15     9    10    1
    16     9    33    1
    17     9    34    1
    18    10    11    1
    19    11    12    2
    20    12    13    1
    21    12    19    1
    22    13    14   ar
    23    14    15   ar
    24    14    35    1
    25    15    16   ar
    26    15    36    1
    27    16    17   ar
    28    16    37    1
    29    17    18   ar
    30    17    38    1
    31    18    13   ar
    32    18    39    1
    33    19    20    2
    34    19    40    1
    35    20    21    1
    36    20    25    1
    37    21    22    1
    38    21    23    1
    39    21    24    1
    40    25    26    2
    41    25    10   am
    42    27     4   ar
    43    27    41    1
@<TRIPOS>MOLECULE
*****
 41 43 0 0 0
SMALL
GASTEIGER

@<TRIPOS>ATOM
      1 N           2.6191    6.5787   -4.6744 N.am    1  UNL11      -0.3253
      2 C           2.5705    5.7464   -3.5333 C.2     1  UNL11       0.2415
      3 O           3.2019    6.1040   -2.5086 O.2     1  UNL11      -0.2704
      4 C           1.8096    4.5009   -3.5335 C.ar    1  UNL11       0.0369
      5 C           1.1184    4.1182   -4.6636 C.ar    1  UNL11      -0.0496
      6 C           0.4087    2.9372   -4.6348 C.ar    1  UNL11      -0.0606
      7 C           0.3939    2.1479   -3.4805 C.ar    1  UNL11      -0.0525
      8 C           1.0768    2.5124   -2.3432 C.ar    1  UNL11       0.0196
      9 C           1.1136    1.7487   -1.0956 C.3     1  UNL11       0.1985
     10 N          -0.1713    1.5246   -0.4883 N.am    1  UNL11      -0.0155
     11 N          -0.9308    0.4971   -0.7253 N.2     1  UNL11      -0.0009
     12 C          -2.1362    0.2496   -0.1787 C.2     1  UNL11       0.1377
     13 C          -2.8337   -0.9451   -0.5639 C.ar    1  UNL11       0.0061
     14 C          -4.2094   -1.0092   -0.5876 C.ar    1  UNL11      -0.0524
     15 C          -4.8532   -2.1788   -0.9646 C.ar    1  UNL11      -0.0611
     16 C          -4.1345   -3.2881   -1.3191 C.ar    1  UNL11      -0.0617
     17 C          -2.7609   -3.2441   -1.3018 C.ar    1  UNL11      -0.0611
     18 C          -2.1330   -2.0927   -0.9307 C.ar    1  UNL11      -0.0524
     19 C          -2.6113    1.1660    0.7131 C.2     1  UNL11      -0.0084
     20 C          -1.8354    2.2799    0.9980 C.2     1  UNL11       0.1730
     21 C          -2.3568    3.2648    1.9629 C.3     1  UNL11       0.4270
     22 F          -1.4643    4.3228    2.1417 F       1  UNL11      -0.1655
     23 F          -2.6163    2.6750    3.1825 F       1  UNL11      -0.1655
     24 F          -3.5669    3.7270    1.4752 F       1  UNL11      -0.1655
     25 C          -0.6184    2.4429    0.3881 C.2     1  UNL11       0.4446
     26 O           0.0366    3.4780    0.6916 O.2     1  UNL11      -0.2116
     27 C           1.7811    3.7086   -2.4084 C.ar    1  UNL11      -0.0404
     28 H           2.3280    7.5661   -4.5877 H       1  UNL11       0.1453
     29 H           2.9441    6.1854   -5.5725 H       1  UNL11       0.1453
     30 H           1.1435    4.7474   -5.5509 H       1  UNL11       0.0625
     31 H          -0.1455    2.6112   -5.5122 H       1  UNL11       0.0618
     32 H          -0.1614    1.2172   -3.4505 H       1  UNL11       0.0622
     33 H           1.7950    2.3086   -0.3898 H       1  UNL11       0.1103
     34 H           1.5799    0.7569   -1.2674 H       1  UNL11       0.1103
     35 H          -4.8287   -0.1670   -0.3186 H       1  UNL11       0.0624
     36 H          -5.9313   -2.1895   -0.9704 H       1  UNL11       0.0618
     37 H          -4.6600   -4.2109   -1.6165 H       1  UNL11       0.0618
     38 H          -2.2362   -4.1454   -1.5900 H       1  UNL11       0.0618
     39 H          -1.0654   -2.0393   -0.9111 H       1  UNL11       0.0624
     40 H          -3.5732    1.0292    1.1897 H       1  UNL11       0.0650
     41 H           2.3295    4.0252   -1.5314 H       1  UNL11       0.0630
@<TRIPOS>BOND
     1     1     2   am
     2     1    28    1
     3     1    29    1
     4     2     3    2
     5     2     4    1
     6     4     5   ar
     7     5     6   ar
     8     5    30    1
     9     6     7   ar
    10     6    31    1
    11     7     8   ar
    12     7    32    1
    13     8     9    1
    14     8    27   ar
    15     9    10    1
    16     9    33    1
    17     9    34    1
    18    10    11    1
    19    11    12    2
    20    12    13    1
    21    12    19    1
    22    13    14   ar
    23    14    15   ar
    24    14    35    1
    25    15    16   ar
    26    15    36    1
    27    16    17   ar
    28    16    37    1
    29    17    18   ar
    30    17    38    1
    31    18    13   ar
    32    18    39    1
    33    19    20    2
    34    19    40    1
    35    20    21    1
    36    20    25    1
    37    21    22    1
    38    21    23    1
    39    21    24    1
    40    25    26    2
    41    25    10   am
    42    27     4   ar
    43    27    41    1
@<TRIPOS>MOLECULE
*****
 41 43 0 0 0
SMALL
GASTEIGER

@<TRIPOS>ATOM
      1 N           0.0184    6.6986   -2.1464 N.am    1  UNL11      -0.3253
      2 C          -0.0896    5.9420   -3.3351 C.2     1  UNL11       0.2415
      3 O          -0.6850    6.4544   -4.3146 O.2     1  UNL11      -0.2704
      4 C           0.4724    4.5987   -3.4342 C.ar    1  UNL11       0.0369
      5 C           0.9232    4.1304   -4.6504 C.ar    1  UNL11      -0.0496
      6 C           1.4490    2.8581   -4.7139 C.ar    1  UNL11      -0.0606
      7 C           1.5212    2.0636   -3.5654 C.ar    1  UNL11      -0.0525
      8 C           1.0768    2.5124   -2.3432 C.ar    1  UNL11       0.0196
      9 C           1.1136    1.7487   -1.0956 C.3     1  UNL11       0.1985
     10 N          -0.1713    1.5246   -0.4883 N.am    1  UNL11      -0.0155
     11 N          -0.9308    0.4971   -0.7253 N.2     1  UNL11      -0.0009
     12 C          -2.1362    0.2496   -0.1787 C.2     1  UNL11       0.1377
     13 C          -2.8337   -0.9451   -0.5639 C.ar    1  UNL11       0.0061
     14 C          -4.2094   -1.0092   -0.5876 C.ar    1  UNL11      -0.0524
     15 C          -4.8532   -2.1788   -0.9646 C.ar    1  UNL11      -0.0611
     16 C          -4.1345   -3.2881   -1.3191 C.ar    1  UNL11      -0.0617
     17 C          -2.7609   -3.2441   -1.3018 C.ar    1  UNL11      -0.0611
     18 C          -2.1330   -2.0927   -0.9307 C.ar    1  UNL11      -0.0524
     19 C          -2.6113    1.1660    0.7131 C.2     1  UNL11      -0.0084
     20 C          -1.8354    2.2799    0.9980 C.2     1  UNL11       0.1730
     21 C          -2.3568    3.2648    1.9629 C.3     1  UNL11       0.4270
     22 F          -1.4643    4.3228    2.1417 F       1  UNL11      -0.1655
     23 F          -2.6163    2.6750    3.1825 F       1  UNL11      -0.1655
     24 F          -3.5669    3.7270    1.4752 F       1  UNL11      -0.1655
     25 C          -0.6184    2.4429    0.3881 C.2     1  UNL11       0.4446
     26 O           0.0366    3.4780    0.6916 O.2     1  UNL11      -0.2116
     27 C           0.5531    3.7993   -2.3166 C.ar    1  UNL11      -0.0404
     28 H           0.4543    7.6344   -2.1854 H       1  UNL11       0.1453
     29 H          -0.3397    6.3028   -1.2621 H       1  UNL11       0.1453
     30 H           0.8576    4.7655   -5.5314 H       1  UNL11       0.0625
     31 H           1.8120    2.4636   -5.6604 H       1  UNL11       0.0618
     32 H           1.9342    1.0621   -3.6073 H       1  UNL11       0.0622
     33 H           1.7950    2.3086   -0.3898 H       1  UNL11       0.1103
     34 H           1.5799    0.7569   -1.2674 H       1  UNL11       0.1103
     35 H          -4.8287   -0.1670   -0.3186 H       1  UNL11       0.0624
     36 H          -5.9313   -2.1895   -0.9704 H       1  UNL11       0.0618
     37 H          -4.6600   -4.2109   -1.6165 H       1  UNL11       0.0618
     38 H          -2.2362   -4.1454   -1.5900 H       1  UNL11       0.0618
     39 H          -1.0654   -2.0393   -0.9111 H       1  UNL11       0.0624
     40 H          -3.5732    1.0292    1.1897 H       1  UNL11       0.0650
     41 H           0.1945    4.1839   -1.3713 H       1  UNL11       0.0630
@<TRIPOS>BOND
     1     1     2   am
     2     1    28    1
     3     1    29    1
     4     2     3    2
     5     2     4    1
     6     4     5   ar
     7     5     6   ar
     8     5    30    1
     9     6     7   ar
    10     6    31    1
    11     7     8   ar
    12     7    32    1
    13     8     9    1
    14     8    27   ar
    15     9    10    1
    16     9    33    1
    17     9    34    1
    18    10    11    1
    19    11    12    2
    20    12    13    1
    21    12    19    1
    22    13    14   ar
    23    14    15   ar
    24    14    35    1
    25    15    16   ar
    26    15    36    1
    27    16    17   ar
    28    16    37    1
    29    17    18   ar
    30    17    38    1
    31    18    13   ar
    32    18    39    1
    33    19    20    2
    34    19    40    1
    35    20    21    1
    36    20    25    1
    37    21    22    1
    38    21    23    1
    39    21    24    1
    40    25    26    2
    41    25    10   am
    42    27     4   ar
    43    27    41    1
@<TRIPOS>MOLECULE
*****
 41 43 0 0 0
SMALL
GASTEIGER

@<TRIPOS>ATOM
      1 N           1.4575    7.8568   -1.4945 N.am    1  UNL11      -0.3253
      2 C           0.8322    6.6443   -1.1258 C.2     1  UNL11       0.2415
      3 O           0.0583    6.6505   -0.1370 O.2     1  UNL11      -0.2704
      4 C           1.0716    5.4100   -1.8671 C.ar    1  UNL11       0.0369
      5 C           1.3705    5.4634   -3.2122 C.ar    1  UNL11      -0.0496
      6 C           1.5918    4.2821   -3.8864 C.ar    1  UNL11      -0.0606
      7 C           1.5135    3.0580   -3.2148 C.ar    1  UNL11      -0.0525
      8 C           1.2166    2.9838   -1.8735 C.ar    1  UNL11       0.0196
      9 C           1.1136    1.7487   -1.0956 C.3     1  UNL11       0.1985
     10 N          -0.1713    1.5246   -0.4883 N.am    1  UNL11      -0.0155
     11 N          -0.9308    0.4971   -0.7253 N.2     1  UNL11      -0.0009
     12 C          -2.1362    0.2496   -0.1787 C.2     1  UNL11       0.1377
     13 C          -2.8337   -0.9451   -0.5639 C.ar    1  UNL11       0.0061
     14 C          -3.6896   -1.5975    0.2957 C.ar    1  UNL11      -0.0524
     15 C          -4.3485   -2.7499   -0.1070 C.ar    1  UNL11      -0.0611
     16 C          -4.1605   -3.2586   -1.3634 C.ar    1  UNL11      -0.0617
     17 C          -3.3104   -2.6221   -2.2359 C.ar    1  UNL11      -0.0611
     18 C          -2.6653   -1.4901   -1.8355 C.ar    1  UNL11      -0.0524
     19 C          -2.6113    1.1660    0.7131 C.2     1  UNL11      -0.0084
     20 C          -1.8354    2.2799    0.9980 C.2     1  UNL11       0.1730
     21 C          -2.3568    3.2648    1.9629 C.3     1  UNL11       0.4270
     22 F          -1.4643    4.3228    2.1417 F       1  UNL11      -0.1655
     23 F          -2.6163    2.6750    3.1825 F       1  UNL11      -0.1655
     24 F          -3.5669    3.7270    1.4752 F       1  UNL11      -0.1655
     25 C          -0.6184    2.4429    0.3881 C.2     1  UNL11       0.4446
     26 O           0.0366    3.4780    0.6916 O.2     1  UNL11      -0.2116
     27 C           0.9996    4.1941   -1.2262 C.ar    1  UNL11      -0.0404
     28 H           0.8705    8.6821   -1.6981 H       1  UNL11       0.1453
     29 H           2.4880    7.8955   -1.5536 H       1  UNL11       0.1453
     30 H           1.4264    6.4267   -3.7151 H       1  UNL11       0.0625
     31 H           1.8294    4.2950   -4.9479 H       1  UNL11       0.0618
     32 H           1.6870    2.1246   -3.7382 H       1  UNL11       0.0622
     33 H           1.9236    1.7893   -0.3094 H       1  UNL11       0.1103
     34 H           1.3376    0.8721   -1.7375 H       1  UNL11       0.1103
     35 H          -3.8774   -1.2437    1.2981 H       1  UNL11       0.0624
     36 H          -5.0103   -3.2318    0.5947 H       1  UNL11       0.0618
     37 H          -4.6911   -4.1756   -1.6697 H       1  UNL11       0.0618
     38 H          -3.1939   -3.0614   -3.2178 H       1  UNL11       0.0618
     39 H          -2.0003   -0.9812   -2.5001 H       1  UNL11       0.0624
     40 H          -3.5732    1.0292    1.1897 H       1  UNL11       0.0650
     41 H           0.7640    4.1721   -0.1707 H       1  UNL11       0.0630
@<TRIPOS>BOND
     1     1     2   am
     2     1    28    1
     3     1    29    1
     4     2     3    2
     5     2     4    1
     6     4     5   ar
     7     5     6   ar
     8     5    30    1
     9     6     7   ar
    10     6    31    1
    11     7     8   ar
    12     7    32    1
    13     8     9    1
    14     8    27   ar
    15     9    10    1
    16     9    33    1
    17     9    34    1
    18    10    11    1
    19    11    12    2
    20    12    13    1
    21    12    19    1
    22    13    14   ar
    23    14    15   ar
    24    14    35    1
    25    15    16   ar
    26    15    36    1
    27    16    17   ar
    28    16    37    1
    29    17    18   ar
    30    17    38    1
    31    18    13   ar
    32    18    39    1
    33    19    20    2
    34    19    40    1
    35    20    21    1
    36    20    25    1
    37    21    22    1
    38    21    23    1
    39    21    24    1
    40    25    26    2
    41    25    10   am
    42    27     4   ar
    43    27    41    1
@<TRIPOS>MOLECULE
*****
 41 43 0 0 0
SMALL
GASTEIGER

@<TRIPOS>ATOM
      1 N           2.0150    6.6925   -4.6073 N.am    1  UNL11      -0.3253
      2 C           2.2717    5.3640   -4.1998 C.2     1  UNL11       0.2415
      3 O           2.7028    4.5520   -5.0549 O.2     1  UNL11      -0.2704
      4 C           2.0454    4.9345   -2.8233 C.ar    1  UNL11       0.0369
      5 C           2.1765    5.8392   -1.7909 C.ar    1  UNL11      -0.0496
      6 C           1.9568    5.4054   -0.5014 C.ar    1  UNL11      -0.0606
      7 C           1.6083    4.0743   -0.2518 C.ar    1  UNL11      -0.0525
      8 C           1.4727    3.1567   -1.2679 C.ar    1  UNL11       0.0196
      9 C           1.1136    1.7487   -1.0956 C.3     1  UNL11       0.1985
     10 N          -0.1713    1.5246   -0.4883 N.am    1  UNL11      -0.0155
     11 N          -0.9308    0.4971   -0.7253 N.2     1  UNL11      -0.0009
     12 C          -2.1362    0.2496   -0.1787 C.2     1  UNL11       0.1377
     13 C          -2.8337   -0.9451   -0.5639 C.ar    1  UNL11       0.0061
     14 C          -4.2094   -1.0092   -0.5876 C.ar    1  UNL11      -0.0524
     15 C          -4.8532   -2.1788   -0.9646 C.ar    1  UNL11      -0.0611
     16 C          -4.1345   -3.2881   -1.3191 C.ar    1  UNL11      -0.0617
     17 C          -2.7609   -3.2441   -1.3018 C.ar    1  UNL11      -0.0611
     18 C          -2.1330   -2.0927   -0.9307 C.ar    1  UNL11      -0.0524
     19 C          -2.6113    1.1660    0.7131 C.2     1  UNL11      -0.0084
     20 C          -1.8354    2.2799    0.9980 C.2     1  UNL11       0.1730
     21 C          -2.3568    3.2648    1.9629 C.3     1  UNL11       0.4270
     22 F          -1.4643    4.3228    2.1417 F       1  UNL11      -0.1655
     23 F          -2.6163    2.6750    3.1825 F       1  UNL11      -0.1655
     24 F          -3.5669    3.7270    1.4752 F       1  UNL11      -0.1655
     25 C          -0.6184    2.4429    0.3881 C.2     1  UNL11       0.4446
     26 O           0.0366    3.4780    0.6916 O.2     1  UNL11      -0.2116
     27 C           1.7016    3.6291   -2.5545 C.ar    1  UNL11      -0.0404
     28 H           2.7751    7.2387   -5.0444 H       1  UNL11       0.1453
     29 H           1.0740    7.0925   -4.4608 H       1  UNL11       0.1453
     30 H           2.4485    6.8702   -2.0077 H       1  UNL11       0.0625
     31 H           2.0534    6.0978    0.3319 H       1  UNL11       0.0618
     32 H           1.4331    3.7258    0.7598 H       1  UNL11       0.0622
     33 H           1.9331    1.2757   -0.4787 H       1  UNL11       0.1103
     34 H           1.1149    1.2305   -2.0764 H       1  UNL11       0.1103
     35 H          -4.8287   -0.1670   -0.3186 H       1  UNL11       0.0624
     36 H          -5.9313   -2.1895   -0.9704 H       1  UNL11       0.0618
     37 H          -4.6600   -4.2109   -1.6165 H       1  UNL11       0.0618
     38 H          -2.2362   -4.1454   -1.5900 H       1  UNL11       0.0618
     39 H          -1.0654   -2.0393   -0.9111 H       1  UNL11       0.0624
     40 H          -3.5732    1.0292    1.1897 H       1  UNL11       0.0650
     41 H           1.6034    2.9339   -3.3773 H       1  UNL11       0.0630
@<TRIPOS>BOND
     1     1     2   am
     2     1    28    1
     3     1    29    1
     4     2     3    2
     5     2     4    1
     6     4     5   ar
     7     5     6   ar
     8     5    30    1
     9     6     7   ar
    10     6    31    1
    11     7     8   ar
    12     7    32    1
    13     8     9    1
    14     8    27   ar
    15     9    10    1
    16     9    33    1
    17     9    34    1
    18    10    11    1
    19    11    12    2
    20    12    13    1
    21    12    19    1
    22    13    14   ar
    23    14    15   ar
    24    14    35    1
    25    15    16   ar
    26    15    36    1
    27    16    17   ar
    28    16    37    1
    29    17    18   ar
    30    17    38    1
    31    18    13   ar
    32    18    39    1
    33    19    20    2
    34    19    40    1
    35    20    21    1
    36    20    25    1
    37    21    22    1
    38    21    23    1
    39    21    24    1
    40    25    26    2
    41    25    10   am
    42    27     4   ar
    43    27    41    1
@<TRIPOS>MOLECULE
*****
 41 43 0 0 0
SMALL
GASTEIGER

@<TRIPOS>ATOM
      1 N           1.0400    3.1923    3.8759 N.am    1  UNL11      -0.3253
      2 C           1.9934    3.9737    3.1849 C.2     1  UNL11       0.2415
      3 O           2.4187    5.0186    3.7361 O.2     1  UNL11      -0.2704
      4 C           2.4792    3.5867    1.8640 C.ar    1  UNL11       0.0369
      5 C           3.7590    3.9237    1.4767 C.ar    1  UNL11      -0.0496
      6 C           4.1905    3.5450    0.2239 C.ar    1  UNL11      -0.0606
      7 C           3.3435    2.8339   -0.6319 C.ar    1  UNL11      -0.0525
      8 C           2.0637    2.4883   -0.2641 C.ar    1  UNL11       0.0196
      9 C           1.1136    1.7487   -1.0956 C.3     1  UNL11       0.1985
     10 N          -0.1713    1.5246   -0.4883 N.am    1  UNL11      -0.0155
     11 N          -0.9308    0.4971   -0.7253 N.2     1  UNL11      -0.0009
     12 C          -2.1362    0.2496   -0.1787 C.2     1  UNL11       0.1377
     13 C          -2.8337   -0.9451   -0.5639 C.ar    1  UNL11       0.0061
     14 C          -3.6896   -1.5975    0.2957 C.ar    1  UNL11      -0.0524
     15 C          -4.3485   -2.7499   -0.1070 C.ar    1  UNL11      -0.0611
     16 C          -4.1605   -3.2586   -1.3634 C.ar    1  UNL11      -0.0617
     17 C          -3.3104   -2.6221   -2.2359 C.ar    1  UNL11      -0.0611
     18 C          -2.6653   -1.4901   -1.8355 C.ar    1  UNL11      -0.0524
     19 C          -2.6113    1.1660    0.7131 C.2     1  UNL11      -0.0084
     20 C          -1.8354    2.2799    0.9980 C.2     1  UNL11       0.1730
     21 C          -2.3568    3.2648    1.9629 C.3     1  UNL11       0.4270
     22 F          -1.4643    4.3228    2.1417 F       1  UNL11      -0.1655
     23 F          -2.6163    2.6750    3.1825 F       1  UNL11      -0.1655
     24 F          -3.5669    3.7270    1.4752 F       1  UNL11      -0.1655
     25 C          -0.6184    2.4429    0.3881 C.2     1  UNL11       0.4446
     26 O           0.0366    3.4780    0.6916 O.2     1  UNL11      -0.2116
     27 C           1.6625    2.8864    1.0054 C.ar    1  UNL11      -0.0404
     28 H           1.2657    2.8477    4.8232 H       1  UNL11       0.1453
     29 H           0.1367    2.9805    3.4220 H       1  UNL11       0.1453
     30 H           4.4013    4.4774    2.1584 H       1  UNL11       0.0625
     31 H           5.1954    3.7977   -0.1074 H       1  UNL11       0.0618
     32 H           3.6761    2.5318   -1.6186 H       1  UNL11       0.0622
     33 H           1.6057    0.7668   -1.3593 H       1  UNL11       0.1103
     34 H           0.9428    2.2852   -2.0514 H       1  UNL11       0.1103
     35 H          -3.8774   -1.2437    1.2981 H       1  UNL11       0.0624
     36 H          -5.0103   -3.2318    0.5947 H       1  UNL11       0.0618
     37 H          -4.6911   -4.1756   -1.6697 H       1  UNL11       0.0618
     38 H          -3.1939   -3.0614   -3.2178 H       1  UNL11       0.0618
     39 H          -2.0003   -0.9812   -2.5001 H       1  UNL11       0.0624
     40 H          -3.5732    1.0292    1.1897 H       1  UNL11       0.0650
     41 H           0.6618    2.6309    1.3269 H       1  UNL11       0.0630
@<TRIPOS>BOND
     1     1     2   am
     2     1    28    1
     3     1    29    1
     4     2     3    2
     5     2     4    1
     6     4     5   ar
     7     5     6   ar
     8     5    30    1
     9     6     7   ar
    10     6    31    1
    11     7     8   ar
    12     7    32    1
    13     8     9    1
    14     8    27   ar
    15     9    10    1
    16     9    33    1
    17     9    34    1
    18    10    11    1
    19    11    12    2
    20    12    13    1
    21    12    19    1
    22    13    14   ar
    23    14    15   ar
    24    14    35    1
    25    15    16   ar
    26    15    36    1
    27    16    17   ar
    28    16    37    1
    29    17    18   ar
    30    17    38    1
    31    18    13   ar
    32    18    39    1
    33    19    20    2
    34    19    40    1
    35    20    21    1
    36    20    25    1
    37    21    22    1
    38    21    23    1
    39    21    24    1
    40    25    26    2
    41    25    10   am
    42    27     4   ar
    43    27    41    1
@<TRIPOS>MOLECULE
*****
 41 43 0 0 0
SMALL
GASTEIGER

@<TRIPOS>ATOM
      1 N           2.8740    4.1088    4.2818 N.am    1  UNL11      -0.3253
      2 C           1.9934    3.9737    3.1849 C.2     1  UNL11       0.2415
      3 O           0.7718    4.1957    3.3716 O.2     1  UNL11      -0.2704
      4 C           2.4792    3.5867    1.8640 C.ar    1  UNL11       0.0369
      5 C           3.7590    3.9237    1.4767 C.ar    1  UNL11      -0.0496
      6 C           4.1905    3.5450    0.2239 C.ar    1  UNL11      -0.0606
      7 C           3.3435    2.8339   -0.6319 C.ar    1  UNL11      -0.0525
      8 C           2.0637    2.4883   -0.2641 C.ar    1  UNL11       0.0196
      9 C           1.1136    1.7487   -1.0956 C.3     1  UNL11       0.1985
     10 N          -0.1713    1.5246   -0.4883 N.am    1  UNL11      -0.0155
     11 N          -0.9308    0.4971   -0.7253 N.2     1  UNL11      -0.0009
     12 C          -2.1362    0.2496   -0.1787 C.2     1  UNL11       0.1377
     13 C          -2.8337   -0.9451   -0.5639 C.ar    1  UNL11       0.0061
     14 C          -4.2094   -1.0092   -0.5876 C.ar    1  UNL11      -0.0524
     15 C          -4.8532   -2.1788   -0.9646 C.ar    1  UNL11      -0.0611
     16 C          -4.1345   -3.2881   -1.3191 C.ar    1  UNL11      -0.0617
     17 C          -2.7609   -3.2441   -1.3018 C.ar    1  UNL11      -0.0611
     18 C          -2.1330   -2.0927   -0.9307 C.ar    1  UNL11      -0.0524
     19 C          -2.6113    1.1660    0.7131 C.2     1  UNL11      -0.0084
     20 C          -1.8354    2.2799    0.9980 C.2     1  UNL11       0.1730
     21 C          -2.3568    3.2648    1.9629 C.3     1  UNL11       0.4270
     22 F          -1.4643    4.3228    2.1417 F       1  UNL11      -0.1655
     23 F          -2.6163    2.6750    3.1825 F       1  UNL11      -0.1655
     24 F          -3.5669    3.7270    1.4752 F       1  UNL11      -0.1655
     25 C          -0.6184    2.4429    0.3881 C.2     1  UNL11       0.4446
     26 O           0.0366    3.4780    0.6916 O.2     1  UNL11      -0.2116
     27 C           1.6625    2.8864    1.0054 C.ar    1  UNL11      -0.0404
     28 H           2.9040    5.0058    4.7934 H       1  UNL11       0.1453
     29 H           3.4705    3.3098    4.5515 H       1  UNL11       0.1453
     30 H           4.4013    4.4774    2.1584 H       1  UNL11       0.0625
     31 H           5.1954    3.7977   -0.1074 H       1  UNL11       0.0618
     32 H           3.6761    2.5318   -1.6186 H       1  UNL11       0.0622
     33 H           1.6057    0.7668   -1.3593 H       1  UNL11       0.1103
     34 H           0.9428    2.2852   -2.0514 H       1  UNL11       0.1103
     35 H          -4.8287   -0.1670   -0.3186 H       1  UNL11       0.0624
     36 H          -5.9313   -2.1895   -0.9704 H       1  UNL11       0.0618
     37 H          -4.6600   -4.2109   -1.6165 H       1  UNL11       0.0618
     38 H          -2.2362   -4.1454   -1.5900 H       1  UNL11       0.0618
     39 H          -1.0654   -2.0393   -0.9111 H       1  UNL11       0.0624
     40 H          -3.5732    1.0292    1.1897 H       1  UNL11       0.0650
     41 H           0.6618    2.6309    1.3269 H       1  UNL11       0.0630
@<TRIPOS>BOND
     1     1     2   am
     2     1    28    1
     3     1    29    1
     4     2     3    2
     5     2     4    1
     6     4     5   ar
     7     5     6   ar
     8     5    30    1
     9     6     7   ar
    10     6    31    1
    11     7     8   ar
    12     7    32    1
    13     8     9    1
    14     8    27   ar
    15     9    10    1
    16     9    33    1
    17     9    34    1
    18    10    11    1
    19    11    12    2
    20    12    13    1
    21    12    19    1
    22    13    14   ar
    23    14    15   ar
    24    14    35    1
    25    15    16   ar
    26    15    36    1
    27    16    17   ar
    28    16    37    1
    29    17    18   ar
    30    17    38    1
    31    18    13   ar
    32    18    39    1
    33    19    20    2
    34    19    40    1
    35    20    21    1
    36    20    25    1
    37    21    22    1
    38    21    23    1
    39    21    24    1
    40    25    26    2
    41    25    10   am
    42    27     4   ar
    43    27    41    1
@<TRIPOS>MOLECULE
*****
 41 43 0 0 0
SMALL
GASTEIGER

@<TRIPOS>ATOM
      1 N           3.9967   -1.5560    1.6561 N.am    1  UNL11      -0.3253
      2 C           4.2937   -1.7197    0.2843 C.2     1  UNL11       0.2415
      3 O           5.3350   -2.3478   -0.0283 O.2     1  UNL11      -0.2704
      4 C           3.4206   -1.1774   -0.7520 C.ar    1  UNL11       0.0369
      5 C           3.3275   -1.8114   -1.9730 C.ar    1  UNL11      -0.0496
      6 C           2.4950   -1.2767   -2.9324 C.ar    1  UNL11      -0.0606
      7 C           1.7626   -0.1154   -2.6669 C.ar    1  UNL11      -0.0525
      8 C           1.8419    0.5316   -1.4554 C.ar    1  UNL11       0.0196
      9 C           1.1136    1.7487   -1.0956 C.3     1  UNL11       0.1985
     10 N          -0.1713    1.5246   -0.4883 N.am    1  UNL11      -0.0155
     11 N          -0.9308    0.4971   -0.7253 N.2     1  UNL11      -0.0009
     12 C          -2.1362    0.2496   -0.1787 C.2     1  UNL11       0.1377
     13 C          -2.8337   -0.9451   -0.5639 C.ar    1  UNL11       0.0061
     14 C          -2.6740   -1.5118   -1.8091 C.ar    1  UNL11      -0.0524
     15 C          -3.3626   -2.6667   -2.1505 C.ar    1  UNL11      -0.0611
     16 C          -4.2115   -3.2629   -1.2580 C.ar    1  UNL11      -0.0617
     17 C          -4.3845   -2.7126   -0.0105 C.ar    1  UNL11      -0.0611
     18 C          -3.7057   -1.5778    0.3202 C.ar    1  UNL11      -0.0524
     19 C          -2.6113    1.1660    0.7131 C.2     1  UNL11      -0.0084
     20 C          -1.8354    2.2799    0.9980 C.2     1  UNL11       0.1730
     21 C          -2.3568    3.2648    1.9629 C.3     1  UNL11       0.4270
     22 F          -1.4643    4.3228    2.1417 F       1  UNL11      -0.1655
     23 F          -2.6163    2.6750    3.1825 F       1  UNL11      -0.1655
     24 F          -3.5669    3.7270    1.4752 F       1  UNL11      -0.1655
     25 C          -0.6184    2.4429    0.3881 C.2     1  UNL11       0.4446
     26 O           0.0366    3.4780    0.6916 O.2     1  UNL11      -0.2116
     27 C           2.6906   -0.0354   -0.5124 C.ar    1  UNL11      -0.0404
     28 H           3.9194   -2.3935    2.2560 H       1  UNL11       0.1453
     29 H           3.8624   -0.6038    2.0333 H       1  UNL11       0.1453
     30 H           3.9062   -2.7139   -2.1584 H       1  UNL11       0.0625
     31 H           2.4025   -1.7564   -3.9044 H       1  UNL11       0.0618
     32 H           1.1051    0.3107   -3.4163 H       1  UNL11       0.0622
     33 H           1.0060    2.3567   -2.0415 H       1  UNL11       0.1103
     34 H           1.7142    2.3603   -0.3915 H       1  UNL11       0.1103
     35 H          -2.0186   -1.0868   -2.5542 H       1  UNL11       0.0624
     36 H          -3.2109   -3.0799   -3.1347 H       1  UNL11       0.0618
     37 H          -4.7523   -4.1806   -1.5434 H       1  UNL11       0.0618
     38 H          -5.0655   -3.2192    0.6605 H       1  UNL11       0.0618
     39 H          -3.8272   -1.1352    1.2858 H       1  UNL11       0.0624
     40 H          -3.5732    1.0292    1.1897 H       1  UNL11       0.0650
     41 H           2.7766    0.4479    0.4514 H       1  UNL11       0.0630
@<TRIPOS>BOND
     1     1     2   am
     2     1    28    1
     3     1    29    1
     4     2     3    2
     5     2     4    1
     6     4     5   ar
     7     5     6   ar
     8     5    30    1
     9     6     7   ar
    10     6    31    1
    11     7     8   ar
    12     7    32    1
    13     8     9    1
    14     8    27   ar
    15     9    10    1
    16     9    33    1
    17     9    34    1
    18    10    11    1
    19    11    12    2
    20    12    13    1
    21    12    19    1
    22    13    14   ar
    23    14    15   ar
    24    14    35    1
    25    15    16   ar
    26    15    36    1
    27    16    17   ar
    28    16    37    1
    29    17    18   ar
    30    17    38    1
    31    18    13   ar
    32    18    39    1
    33    19    20    2
    34    19    40    1
    35    20    21    1
    36    20    25    1
    37    21    22    1
    38    21    23    1
    39    21    24    1
    40    25    26    2
    41    25    10   am
    42    27     4   ar
    43    27    41    1
@<TRIPOS>MOLECULE
*****
 41 43 0 0 0
SMALL
GASTEIGER

@<TRIPOS>ATOM
      1 N           1.5897    4.7600   -5.2802 N.am    1  UNL11      -0.3253
      2 C           2.2717    5.3640   -4.1998 C.2     1  UNL11       0.2415
      3 O           3.0847    6.2873   -4.4507 O.2     1  UNL11      -0.2704
      4 C           2.0454    4.9345   -2.8233 C.ar    1  UNL11       0.0369
      5 C           2.1765    5.8392   -1.7909 C.ar    1  UNL11      -0.0496
      6 C           1.9568    5.4054   -0.5014 C.ar    1  UNL11      -0.0606
      7 C           1.6083    4.0743   -0.2518 C.ar    1  UNL11      -0.0525
      8 C           1.4727    3.1567   -1.2679 C.ar    1  UNL11       0.0196
      9 C           1.1136    1.7487   -1.0956 C.3     1  UNL11       0.1985
     10 N          -0.1713    1.5246   -0.4883 N.am    1  UNL11      -0.0155
     11 N          -0.9308    0.4971   -0.7253 N.2     1  UNL11      -0.0009
     12 C          -2.1362    0.2496   -0.1787 C.2     1  UNL11       0.1377
     13 C          -2.8337   -0.9451   -0.5639 C.ar    1  UNL11       0.0061
     14 C          -3.6896   -1.5975    0.2957 C.ar    1  UNL11      -0.0524
     15 C          -4.3485   -2.7499   -0.1070 C.ar    1  UNL11      -0.0611
     16 C          -4.1605   -3.2586   -1.3634 C.ar    1  UNL11      -0.0617
     17 C          -3.3104   -2.6221   -2.2359 C.ar    1  UNL11      -0.0611
     18 C          -2.6653   -1.4901   -1.8355 C.ar    1  UNL11      -0.0524
     19 C          -2.6113    1.1660    0.7131 C.2     1  UNL11      -0.0084
     20 C          -1.8354    2.2799    0.9980 C.2     1  UNL11       0.1730
     21 C          -2.3568    3.2648    1.9629 C.3     1  UNL11       0.4270
     22 F          -1.4643    4.3228    2.1417 F       1  UNL11      -0.1655
     23 F          -2.6163    2.6750    3.1825 F       1  UNL11      -0.1655
     24 F          -3.5669    3.7270    1.4752 F       1  UNL11      -0.1655
     25 C          -0.6184    2.4429    0.3881 C.2     1  UNL11       0.4446
     26 O           0.0366    3.4780    0.6916 O.2     1  UNL11      -0.2116
     27 C           1.7016    3.6291   -2.5545 C.ar    1  UNL11      -0.0404
     28 H           1.0357    5.3539   -5.9184 H       1  UNL11       0.1453
     29 H           1.6577    3.7377   -5.4116 H       1  UNL11       0.1453
     30 H           2.4485    6.8702   -2.0077 H       1  UNL11       0.0625
     31 H           2.0534    6.0978    0.3319 H       1  UNL11       0.0618
     32 H           1.4331    3.7258    0.7598 H       1  UNL11       0.0622
     33 H           1.9331    1.2757   -0.4787 H       1  UNL11       0.1103
     34 H           1.1149    1.2305   -2.0764 H       1  UNL11       0.1103
     35 H          -3.8774   -1.2437    1.2981 H       1  UNL11       0.0624
     36 H          -5.0103   -3.2318    0.5947 H       1  UNL11       0.0618
     37 H          -4.6911   -4.1756   -1.6697 H       1  UNL11       0.0618
     38 H          -3.1939   -3.0614   -3.2178 H       1  UNL11       0.0618
     39 H          -2.0003   -0.9812   -2.5001 H       1  UNL11       0.0624
     40 H          -3.5732    1.0292    1.1897 H       1  UNL11       0.0650
     41 H           1.6034    2.9339   -3.3773 H       1  UNL11       0.0630
@<TRIPOS>BOND
     1     1     2   am
     2     1    28    1
     3     1    29    1
     4     2     3    2
     5     2     4    1
     6     4     5   ar
     7     5     6   ar
     8     5    30    1
     9     6     7   ar
    10     6    31    1
    11     7     8   ar
    12     7    32    1
    13     8     9    1
    14     8    27   ar
    15     9    10    1
    16     9    33    1
    17     9    34    1
    18    10    11    1
    19    11    12    2
    20    12    13    1
    21    12    19    1
    22    13    14   ar
    23    14    15   ar
    24    14    35    1
    25    15    16   ar
    26    15    36    1
    27    16    17   ar
    28    16    37    1
    29    17    18   ar
    30    17    38    1
    31    18    13   ar
    32    18    39    1
    33    19    20    2
    34    19    40    1
    35    20    21    1
    36    20    25    1
    37    21    22    1
    38    21    23    1
    39    21    24    1
    40    25    26    2
    41    25    10   am
    42    27     4   ar
    43    27    41    1
@<TRIPOS>MOLECULE
*****
 41 43 0 0 0
SMALL
GASTEIGER

@<TRIPOS>ATOM
      1 N           5.2085   -1.0673    2.4944 N.am    1  UNL11      -0.3253
      2 C           4.6961    0.0429    1.7860 C.2     1  UNL11       0.2415
      3 O           4.9655    1.1943    2.2083 O.2     1  UNL11      -0.2704
      4 C           3.8737   -0.1311    0.5928 C.ar    1  UNL11       0.0369
      5 C           4.0582   -1.2341   -0.2140 C.ar    1  UNL11      -0.0496
      6 C           3.2672   -1.3723   -1.3339 C.ar    1  UNL11      -0.0606
      7 C           2.2993   -0.4106   -1.6404 C.ar    1  UNL11      -0.0525
      8 C           2.1000    0.6966   -0.8484 C.ar    1  UNL11       0.0196
      9 C           1.1136    1.7487   -1.0956 C.3     1  UNL11       0.1985
     10 N          -0.1713    1.5246   -0.4883 N.am    1  UNL11      -0.0155
     11 N          -0.9308    0.4971   -0.7253 N.2     1  UNL11      -0.0009
     12 C          -2.1362    0.2496   -0.1787 C.2     1  UNL11       0.1377
     13 C          -2.8337   -0.9451   -0.5639 C.ar    1  UNL11       0.0061
     14 C          -3.6896   -1.5975    0.2957 C.ar    1  UNL11      -0.0524
     15 C          -4.3485   -2.7499   -0.1070 C.ar    1  UNL11      -0.0611
     16 C          -4.1605   -3.2586   -1.3634 C.ar    1  UNL11      -0.0617
     17 C          -3.3104   -2.6221   -2.2359 C.ar    1  UNL11      -0.0611
     18 C          -2.6653   -1.4901   -1.8355 C.ar    1  UNL11      -0.0524
     19 C          -2.6113    1.1660    0.7131 C.2     1  UNL11      -0.0084
     20 C          -1.8354    2.2799    0.9980 C.2     1  UNL11       0.1730
     21 C          -2.3568    3.2648    1.9629 C.3     1  UNL11       0.4270
     22 F          -1.4643    4.3228    2.1417 F       1  UNL11      -0.1655
     23 F          -2.6163    2.6750    3.1825 F       1  UNL11      -0.1655
     24 F          -3.5669    3.7270    1.4752 F       1  UNL11      -0.1655
     25 C          -0.6184    2.4429    0.3881 C.2     1  UNL11       0.4446
     26 O           0.0366    3.4780    0.6916 O.2     1  UNL11      -0.2116
     27 C           2.9151    0.8031    0.2720 C.ar    1  UNL11      -0.0404
     28 H           6.2277   -1.1377    2.6472 H       1  UNL11       0.1453
     29 H           4.5558   -1.7867    2.8457 H       1  UNL11       0.1453
     30 H           4.8171   -1.9703    0.0431 H       1  UNL11       0.0625
     31 H           3.3914   -2.2327   -1.9879 H       1  UNL11       0.0618
     32 H           1.6727   -0.5127   -2.5192 H       1  UNL11       0.0622
     33 H           1.0125    1.8449   -2.2165 H       1  UNL11       0.1103
     34 H           1.4928    2.7235   -0.7261 H       1  UNL11       0.1103
     35 H          -3.8774   -1.2437    1.2981 H       1  UNL11       0.0624
     36 H          -5.0103   -3.2318    0.5947 H       1  UNL11       0.0618
     37 H          -4.6911   -4.1756   -1.6697 H       1  UNL11       0.0618
     38 H          -3.1939   -3.0614   -3.2178 H       1  UNL11       0.0618
     39 H          -2.0003   -0.9812   -2.5001 H       1  UNL11       0.0624
     40 H          -3.5732    1.0292    1.1897 H       1  UNL11       0.0650
     41 H           2.7849    1.6617    0.9169 H       1  UNL11       0.0630
@<TRIPOS>BOND
     1     1     2   am
     2     1    28    1
     3     1    29    1
     4     2     3    2
     5     2     4    1
     6     4     5   ar
     7     5     6   ar
     8     5    30    1
     9     6     7   ar
    10     6    31    1
    11     7     8   ar
    12     7    32    1
    13     8     9    1
    14     8    27   ar
    15     9    10    1
    16     9    33    1
    17     9    34    1
    18    10    11    1
    19    11    12    2
    20    12    13    1
    21    12    19    1
    22    13    14   ar
    23    14    15   ar
    24    14    35    1
    25    15    16   ar
    26    15    36    1
    27    16    17   ar
    28    16    37    1
    29    17    18   ar
    30    17    38    1
    31    18    13   ar
    32    18    39    1
    33    19    20    2
    34    19    40    1
    35    20    21    1
    36    20    25    1
    37    21    22    1
    38    21    23    1
    39    21    24    1
    40    25    26    2
    41    25    10   am
    42    27     4   ar
    43    27    41    1
@<TRIPOS>MOLECULE
*****
 41 43 0 0 0
SMALL
GASTEIGER

@<TRIPOS>ATOM
      1 N           6.8895   -0.3034   -0.9601 N.am    1  UNL11      -0.3253
      2 C           5.8434    0.5643   -0.5731 C.2     1  UNL11       0.2415
      3 O           6.1402    1.7284   -0.2078 O.2     1  UNL11      -0.2704
      4 C           4.4500    0.1305   -0.5933 C.ar    1  UNL11       0.0369
      5 C           4.1408   -1.1976   -0.3879 C.ar    1  UNL11      -0.0496
      6 C           2.8165   -1.5782   -0.4124 C.ar    1  UNL11      -0.0606
      7 C           1.8120   -0.6327   -0.6412 C.ar    1  UNL11      -0.0525
      8 C           2.1000    0.6966   -0.8484 C.ar    1  UNL11       0.0196
      9 C           1.1136    1.7487   -1.0956 C.3     1  UNL11       0.1985
     10 N          -0.1713    1.5246   -0.4883 N.am    1  UNL11      -0.0155
     11 N          -0.9308    0.4971   -0.7253 N.2     1  UNL11      -0.0009
     12 C          -2.1362    0.2496   -0.1787 C.2     1  UNL11       0.1377
     13 C          -2.8337   -0.9451   -0.5639 C.ar    1  UNL11       0.0061
     14 C          -2.6740   -1.5118   -1.8091 C.ar    1  UNL11      -0.0524
     15 C          -3.3626   -2.6667   -2.1505 C.ar    1  UNL11      -0.0611
     16 C          -4.2115   -3.2629   -1.2580 C.ar    1  UNL11      -0.0617
     17 C          -4.3845   -2.7126   -0.0105 C.ar    1  UNL11      -0.0611
     18 C          -3.7057   -1.5778    0.3202 C.ar    1  UNL11      -0.0524
     19 C          -2.6113    1.1660    0.7131 C.2     1  UNL11      -0.0084
     20 C          -1.8354    2.2799    0.9980 C.2     1  UNL11       0.1730
     21 C          -2.3568    3.2648    1.9629 C.3     1  UNL11       0.4270
     22 F          -1.4643    4.3228    2.1417 F       1  UNL11      -0.1655
     23 F          -2.6163    2.6750    3.1825 F       1  UNL11      -0.1655
     24 F          -3.5669    3.7270    1.4752 F       1  UNL11      -0.1655
     25 C          -0.6184    2.4429    0.3881 C.2     1  UNL11       0.4446
     26 O           0.0366    3.4780    0.6916 O.2     1  UNL11      -0.2116
     27 C           3.4451    1.0441   -0.8168 C.ar    1  UNL11      -0.0404
     28 H           7.5325   -0.0092   -1.7132 H       1  UNL11       0.1453
     29 H           6.9920   -1.2142   -0.4837 H       1  UNL11       0.1453
     30 H           4.9382   -1.9166   -0.2116 H       1  UNL11       0.0625
     31 H           2.5443   -2.6194   -0.2533 H       1  UNL11       0.0618
     32 H           0.7680   -0.9243   -0.6612 H       1  UNL11       0.0622
     33 H           1.0125    1.8449   -2.2165 H       1  UNL11       0.1103
     34 H           1.4928    2.7235   -0.7261 H       1  UNL11       0.1103
     35 H          -2.0186   -1.0868   -2.5542 H       1  UNL11       0.0624
     36 H          -3.2109   -3.0799   -3.1347 H       1  UNL11       0.0618
     37 H          -4.7523   -4.1806   -1.5434 H       1  UNL11       0.0618
     38 H          -5.0655   -3.2192    0.6605 H       1  UNL11       0.0618
     39 H          -3.8272   -1.1352    1.2858 H       1  UNL11       0.0624
     40 H          -3.5732    1.0292    1.1897 H       1  UNL11       0.0650
     41 H           3.7070    2.0815   -0.9758 H       1  UNL11       0.0630
@<TRIPOS>BOND
     1     1     2   am
     2     1    28    1
     3     1    29    1
     4     2     3    2
     5     2     4    1
     6     4     5   ar
     7     5     6   ar
     8     5    30    1
     9     6     7   ar
    10     6    31    1
    11     7     8   ar
    12     7    32    1
    13     8     9    1
    14     8    27   ar
    15     9    10    1
    16     9    33    1
    17     9    34    1
    18    10    11    1
    19    11    12    2
    20    12    13    1
    21    12    19    1
    22    13    14   ar
    23    14    15   ar
    24    14    35    1
    25    15    16   ar
    26    15    36    1
    27    16    17   ar
    28    16    37    1
    29    17    18   ar
    30    17    38    1
    31    18    13   ar
    32    18    39    1
    33    19    20    2
    34    19    40    1
    35    20    21    1
    36    20    25    1
    37    21    22    1
    38    21    23    1
    39    21    24    1
    40    25    26    2
    41    25    10   am
    42    27     4   ar
    43    27    41    1
@<TRIPOS>MOLECULE
*****
 41 43 0 0 0
SMALL
GASTEIGER

@<TRIPOS>ATOM
      1 N           1.1420    6.7483    0.2491 N.am    1  UNL11      -0.3253
      2 C           0.8322    6.6443   -1.1258 C.2     1  UNL11       0.2415
      3 O           0.3417    7.6458   -1.7027 O.2     1  UNL11      -0.2704
      4 C           1.0716    5.4100   -1.8671 C.ar    1  UNL11       0.0369
      5 C           1.3705    5.4634   -3.2122 C.ar    1  UNL11      -0.0496
      6 C           1.5918    4.2821   -3.8864 C.ar    1  UNL11      -0.0606
      7 C           1.5135    3.0580   -3.2148 C.ar    1  UNL11      -0.0525
      8 C           1.2166    2.9838   -1.8735 C.ar    1  UNL11       0.0196
      9 C           1.1136    1.7487   -1.0956 C.3     1  UNL11       0.1985
     10 N          -0.1713    1.5246   -0.4883 N.am    1  UNL11      -0.0155
     11 N          -0.9308    0.4971   -0.7253 N.2     1  UNL11      -0.0009
     12 C          -2.1362    0.2496   -0.1787 C.2     1  UNL11       0.1377
     13 C          -2.8337   -0.9451   -0.5639 C.ar    1  UNL11       0.0061
     14 C          -2.1652   -2.0876   -0.9444 C.ar    1  UNL11      -0.0524
     15 C          -2.8685   -3.2258   -1.3110 C.ar    1  UNL11      -0.0611
     16 C          -4.2370   -3.2340   -1.3014 C.ar    1  UNL11      -0.0617
     17 C          -4.9224   -2.1037   -0.9249 C.ar    1  UNL11      -0.0611
     18 C          -4.2267   -0.9880   -0.5655 C.ar    1  UNL11      -0.0524
     19 C          -2.6113    1.1660    0.7131 C.2     1  UNL11      -0.0084
     20 C          -1.8354    2.2799    0.9980 C.2     1  UNL11       0.1730
     21 C          -2.3568    3.2648    1.9629 C.3     1  UNL11       0.4270
     22 F          -1.4643    4.3228    2.1417 F       1  UNL11      -0.1655
     23 F          -2.6163    2.6750    3.1825 F       1  UNL11      -0.1655
     24 F          -3.5669    3.7270    1.4752 F       1  UNL11      -0.1655
     25 C          -0.6184    2.4429    0.3881 C.2     1  UNL11       0.4446
     26 O           0.0366    3.4780    0.6916 O.2     1  UNL11      -0.2116
     27 C           0.9996    4.1941   -1.2262 C.ar    1  UNL11      -0.0404
     28 H           1.7776    7.4990    0.5646 H       1  UNL11       0.1453
     29 H           0.7280    6.0731    0.9122 H       1  UNL11       0.1453
     30 H           1.4264    6.4267   -3.7151 H       1  UNL11       0.0625
     31 H           1.8294    4.2950   -4.9479 H       1  UNL11       0.0618
     32 H           1.6870    2.1246   -3.7382 H       1  UNL11       0.0622
     33 H           1.9236    1.7893   -0.3094 H       1  UNL11       0.1103
     34 H           1.3376    0.8721   -1.7375 H       1  UNL11       0.1103
     35 H          -1.0874   -2.1408   -0.9716 H       1  UNL11       0.0624
     36 H          -2.3093   -4.1002   -1.6027 H       1  UNL11       0.0618
     37 H          -4.7827   -4.1461   -1.5954 H       1  UNL11       0.0618
     38 H          -6.0029   -2.1581   -0.9329 H       1  UNL11       0.0618
     39 H          -4.7423   -0.0995   -0.2696 H       1  UNL11       0.0624
     40 H          -3.5732    1.0292    1.1897 H       1  UNL11       0.0650
     41 H           0.7640    4.1721   -0.1707 H       1  UNL11       0.0630
@<TRIPOS>BOND
     1     1     2   am
     2     1    28    1
     3     1    29    1
     4     2     3    2
     5     2     4    1
     6     4     5   ar
     7     5     6   ar
     8     5    30    1
     9     6     7   ar
    10     6    31    1
    11     7     8   ar
    12     7    32    1
    13     8     9    1
    14     8    27   ar
    15     9    10    1
    16     9    33    1
    17     9    34    1
    18    10    11    1
    19    11    12    2
    20    12    13    1
    21    12    19    1
    22    13    14   ar
    23    14    15   ar
    24    14    35    1
    25    15    16   ar
    26    15    36    1
    27    16    17   ar
    28    16    37    1
    29    17    18   ar
    30    17    38    1
    31    18    13   ar
    32    18    39    1
    33    19    20    2
    34    19    40    1
    35    20    21    1
    36    20    25    1
    37    21    22    1
    38    21    23    1
    39    21    24    1
    40    25    26    2
    41    25    10   am
    42    27     4   ar
    43    27    41    1
@<TRIPOS>MOLECULE
*****
 41 43 0 0 0
SMALL
GASTEIGER

@<TRIPOS>ATOM
      1 N           3.4656    2.8935   -5.5636 N.am    1  UNL11      -0.3253
      2 C           3.2000    4.0923   -4.8641 C.2     1  UNL11       0.2415
      3 O           3.7928    5.1376   -5.2282 O.2     1  UNL11      -0.2704
      4 C           2.2629    4.1275   -3.7456 C.ar    1  UNL11       0.0369
      5 C           1.5481    5.2773   -3.4841 C.ar    1  UNL11      -0.0496
      6 C           0.6705    5.2815   -2.4216 C.ar    1  UNL11      -0.0606
      7 C           0.5127    4.1403   -1.6290 C.ar    1  UNL11      -0.0525
      8 C           1.2166    2.9838   -1.8735 C.ar    1  UNL11       0.0196
      9 C           1.1136    1.7487   -1.0956 C.3     1  UNL11       0.1985
     10 N          -0.1713    1.5246   -0.4883 N.am    1  UNL11      -0.0155
     11 N          -0.9308    0.4971   -0.7253 N.2     1  UNL11      -0.0009
     12 C          -2.1362    0.2496   -0.1787 C.2     1  UNL11       0.1377
     13 C          -2.8337   -0.9451   -0.5639 C.ar    1  UNL11       0.0061
     14 C          -2.1652   -2.0876   -0.9444 C.ar    1  UNL11      -0.0524
     15 C          -2.8685   -3.2258   -1.3110 C.ar    1  UNL11      -0.0611
     16 C          -4.2370   -3.2340   -1.3014 C.ar    1  UNL11      -0.0617
     17 C          -4.9224   -2.1037   -0.9249 C.ar    1  UNL11      -0.0611
     18 C          -4.2267   -0.9880   -0.5655 C.ar    1  UNL11      -0.0524
     19 C          -2.6113    1.1660    0.7131 C.2     1  UNL11      -0.0084
     20 C          -1.8354    2.2799    0.9980 C.2     1  UNL11       0.1730
     21 C          -2.3568    3.2648    1.9629 C.3     1  UNL11       0.4270
     22 F          -1.4643    4.3228    2.1417 F       1  UNL11      -0.1655
     23 F          -2.6163    2.6750    3.1825 F       1  UNL11      -0.1655
     24 F          -3.5669    3.7270    1.4752 F       1  UNL11      -0.1655
     25 C          -0.6184    2.4429    0.3881 C.2     1  UNL11       0.4446
     26 O           0.0366    3.4780    0.6916 O.2     1  UNL11      -0.2116
     27 C           2.0919    3.0158   -2.9523 C.ar    1  UNL11      -0.0404
     28 H           3.3203    2.8666   -6.5860 H       1  UNL11       0.1453
     29 H           3.7995    2.0675   -5.0408 H       1  UNL11       0.1453
     30 H           1.6863    6.1540   -4.1136 H       1  UNL11       0.0625
     31 H           0.0938    6.1750   -2.1927 H       1  UNL11       0.0618
     32 H          -0.1763    4.1356   -0.7919 H       1  UNL11       0.0622
     33 H           1.9236    1.7893   -0.3094 H       1  UNL11       0.1103
     34 H           1.3376    0.8721   -1.7375 H       1  UNL11       0.1103
     35 H          -1.0874   -2.1408   -0.9716 H       1  UNL11       0.0624
     36 H          -2.3093   -4.1002   -1.6027 H       1  UNL11       0.0618
     37 H          -4.7827   -4.1461   -1.5954 H       1  UNL11       0.0618
     38 H          -6.0029   -2.1581   -0.9329 H       1  UNL11       0.0618
     39 H          -4.7423   -0.0995   -0.2696 H       1  UNL11       0.0624
     40 H          -3.5732    1.0292    1.1897 H       1  UNL11       0.0650
     41 H           2.6613    2.1230   -3.1729 H       1  UNL11       0.0630
@<TRIPOS>BOND
     1     1     2   am
     2     1    28    1
     3     1    29    1
     4     2     3    2
     5     2     4    1
     6     4     5   ar
     7     5     6   ar
     8     5    30    1
     9     6     7   ar
    10     6    31    1
    11     7     8   ar
    12     7    32    1
    13     8     9    1
    14     8    27   ar
    15     9    10    1
    16     9    33    1
    17     9    34    1
    18    10    11    1
    19    11    12    2
    20    12    13    1
    21    12    19    1
    22    13    14   ar
    23    14    15   ar
    24    14    35    1
    25    15    16   ar
    26    15    36    1
    27    16    17   ar
    28    16    37    1
    29    17    18   ar
    30    17    38    1
    31    18    13   ar
    32    18    39    1
    33    19    20    2
    34    19    40    1
    35    20    21    1
    36    20    25    1
    37    21    22    1
    38    21    23    1
    39    21    24    1
    40    25    26    2
    41    25    10   am
    42    27     4   ar
    43    27    41    1
@<TRIPOS>MOLECULE
*****
 41 43 0 0 0
SMALL
GASTEIGER

@<TRIPOS>ATOM
      1 N           4.9762    0.8255   -4.4173 N.am    1  UNL11      -0.3253
      2 C           4.3382   -0.3959   -4.1039 C.2     1  UNL11       0.2415
      3 O           4.5604   -1.3891   -4.8392 O.2     1  UNL11      -0.2704
      4 C           3.4419   -0.5126   -2.9579 C.ar    1  UNL11       0.0369
      5 C           3.3271   -1.7164   -2.2952 C.ar    1  UNL11      -0.0496
      6 C           2.4732   -1.7970   -1.2165 C.ar    1  UNL11      -0.0606
      7 C           1.7413   -0.6779   -0.8075 C.ar    1  UNL11      -0.0525
      8 C           1.8419    0.5316   -1.4554 C.ar    1  UNL11       0.0196
      9 C           1.1136    1.7487   -1.0956 C.3     1  UNL11       0.1985
     10 N          -0.1713    1.5246   -0.4883 N.am    1  UNL11      -0.0155
     11 N          -0.9308    0.4971   -0.7253 N.2     1  UNL11      -0.0009
     12 C          -2.1362    0.2496   -0.1787 C.2     1  UNL11       0.1377
     13 C          -2.8337   -0.9451   -0.5639 C.ar    1  UNL11       0.0061
     14 C          -2.6740   -1.5118   -1.8091 C.ar    1  UNL11      -0.0524
     15 C          -3.3626   -2.6667   -2.1505 C.ar    1  UNL11      -0.0611
     16 C          -4.2115   -3.2629   -1.2580 C.ar    1  UNL11      -0.0617
     17 C          -4.3845   -2.7126   -0.0105 C.ar    1  UNL11      -0.0611
     18 C          -3.7057   -1.5778    0.3202 C.ar    1  UNL11      -0.0524
     19 C          -2.6113    1.1660    0.7131 C.2     1  UNL11      -0.0084
     20 C          -1.8354    2.2799    0.9980 C.2     1  UNL11       0.1730
     21 C          -2.3568    3.2648    1.9629 C.3     1  UNL11       0.4270
     22 F          -1.4643    4.3228    2.1417 F       1  UNL11      -0.1655
     23 F          -2.6163    2.6750    3.1825 F       1  UNL11      -0.1655
     24 F          -3.5669    3.7270    1.4752 F       1  UNL11      -0.1655
     25 C          -0.6184    2.4429    0.3881 C.2     1  UNL11       0.4446
     26 O           0.0366    3.4780    0.6916 O.2     1  UNL11      -0.2116
     27 C           2.7119    0.5761   -2.5380 C.ar    1  UNL11      -0.0404
     28 H           6.0065    0.8492   -4.4889 H       1  UNL11       0.1453
     29 H           4.4018    1.6706   -4.5686 H       1  UNL11       0.1453
     30 H           3.9059   -2.5746   -2.6303 H       1  UNL11       0.0625
     31 H           2.3634   -2.7343   -0.6755 H       1  UNL11       0.0618
     32 H           1.0682   -0.7333    0.0406 H       1  UNL11       0.0622
     33 H           1.0060    2.3567   -2.0415 H       1  UNL11       0.1103
     34 H           1.7142    2.3603   -0.3915 H       1  UNL11       0.1103
     35 H          -2.0186   -1.0868   -2.5542 H       1  UNL11       0.0624
     36 H          -3.2109   -3.0799   -3.1347 H       1  UNL11       0.0618
     37 H          -4.7523   -4.1806   -1.5434 H       1  UNL11       0.0618
     38 H          -5.0655   -3.2192    0.6605 H       1  UNL11       0.0618
     39 H          -3.8272   -1.1352    1.2858 H       1  UNL11       0.0624
     40 H          -3.5732    1.0292    1.1897 H       1  UNL11       0.0650
     41 H           2.8151    1.5121   -3.0703 H       1  UNL11       0.0630
@<TRIPOS>BOND
     1     1     2   am
     2     1    28    1
     3     1    29    1
     4     2     3    2
     5     2     4    1
     6     4     5   ar
     7     5     6   ar
     8     5    30    1
     9     6     7   ar
    10     6    31    1
    11     7     8   ar
    12     7    32    1
    13     8     9    1
    14     8    27   ar
    15     9    10    1
    16     9    33    1
    17     9    34    1
    18    10    11    1
    19    11    12    2
    20    12    13    1
    21    12    19    1
    22    13    14   ar
    23    14    15   ar
    24    14    35    1
    25    15    16   ar
    26    15    36    1
    27    16    17   ar
    28    16    37    1
    29    17    18   ar
    30    17    38    1
    31    18    13   ar
    32    18    39    1
    33    19    20    2
    34    19    40    1
    35    20    21    1
    36    20    25    1
    37    21    22    1
    38    21    23    1
    39    21    24    1
    40    25    26    2
    41    25    10   am
    42    27     4   ar
    43    27    41    1
@<TRIPOS>MOLECULE
*****
 41 43 0 0 0
SMALL
GASTEIGER

@<TRIPOS>ATOM
      1 N           1.2826    2.0918   -7.2148 N.am    1  UNL11      -0.3253
      2 C           0.7424    1.6544   -5.9844 C.2     1  UNL11       0.2415
      3 O           0.1247    0.5615   -5.9606 O.2     1  UNL11      -0.2704
      4 C           0.8919    2.4437   -4.7658 C.ar    1  UNL11       0.0369
      5 C           0.9888    3.8170   -4.8442 C.ar    1  UNL11      -0.0496
      6 C           1.1292    4.5363   -3.6771 C.ar    1  UNL11      -0.0606
      7 C           1.1717    3.8813   -2.4423 C.ar    1  UNL11      -0.0525
      8 C           1.0768    2.5124   -2.3432 C.ar    1  UNL11       0.0196
      9 C           1.1136    1.7487   -1.0956 C.3     1  UNL11       0.1985
     10 N          -0.1713    1.5246   -0.4883 N.am    1  UNL11      -0.0155
     11 N          -0.9308    0.4971   -0.7253 N.2     1  UNL11      -0.0009
     12 C          -2.1362    0.2496   -0.1787 C.2     1  UNL11       0.1377
     13 C          -2.8337   -0.9451   -0.5639 C.ar    1  UNL11       0.0061
     14 C          -4.2094   -1.0092   -0.5876 C.ar    1  UNL11      -0.0524
     15 C          -4.8532   -2.1788   -0.9646 C.ar    1  UNL11      -0.0611
     16 C          -4.1345   -3.2881   -1.3191 C.ar    1  UNL11      -0.0617
     17 C          -2.7609   -3.2441   -1.3018 C.ar    1  UNL11      -0.0611
     18 C          -2.1330   -2.0927   -0.9307 C.ar    1  UNL11      -0.0524
     19 C          -2.6113    1.1660    0.7131 C.2     1  UNL11      -0.0084
     20 C          -1.8354    2.2799    0.9980 C.2     1  UNL11       0.1730
     21 C          -2.3568    3.2648    1.9629 C.3     1  UNL11       0.4270
     22 F          -1.4643    4.3228    2.1417 F       1  UNL11      -0.1655
     23 F          -2.6163    2.6750    3.1825 F       1  UNL11      -0.1655
     24 F          -3.5669    3.7270    1.4752 F       1  UNL11      -0.1655
     25 C          -0.6184    2.4429    0.3881 C.2     1  UNL11       0.4446
     26 O           0.0366    3.4780    0.6916 O.2     1  UNL11      -0.2116
     27 C           0.9362    1.8198   -3.5397 C.ar    1  UNL11      -0.0404
     28 H           1.9370    1.4747   -7.7229 H       1  UNL11       0.1453
     29 H           1.0137    3.0187   -7.5829 H       1  UNL11       0.1453
     30 H           0.9534    4.3062   -5.8154 H       1  UNL11       0.0625
     31 H           1.2078    5.6208   -3.7098 H       1  UNL11       0.0618
     32 H           1.2812    4.4404   -1.5199 H       1  UNL11       0.0622
     33 H           1.7950    2.3086   -0.3898 H       1  UNL11       0.1103
     34 H           1.5799    0.7569   -1.2674 H       1  UNL11       0.1103
     35 H          -4.8287   -0.1670   -0.3186 H       1  UNL11       0.0624
     36 H          -5.9313   -2.1895   -0.9704 H       1  UNL11       0.0618
     37 H          -4.6600   -4.2109   -1.6165 H       1  UNL11       0.0618
     38 H          -2.2362   -4.1454   -1.5900 H       1  UNL11       0.0618
     39 H          -1.0654   -2.0393   -0.9111 H       1  UNL11       0.0624
     40 H          -3.5732    1.0292    1.1897 H       1  UNL11       0.0650
     41 H           0.8586    0.7417   -3.4981 H       1  UNL11       0.0630
@<TRIPOS>BOND
     1     1     2   am
     2     1    28    1
     3     1    29    1
     4     2     3    2
     5     2     4    1
     6     4     5   ar
     7     5     6   ar
     8     5    30    1
     9     6     7   ar
    10     6    31    1
    11     7     8   ar
    12     7    32    1
    13     8     9    1
    14     8    27   ar
    15     9    10    1
    16     9    33    1
    17     9    34    1
    18    10    11    1
    19    11    12    2
    20    12    13    1
    21    12    19    1
    22    13    14   ar
    23    14    15   ar
    24    14    35    1
    25    15    16   ar
    26    15    36    1
    27    16    17   ar
    28    16    37    1
    29    17    18   ar
    30    17    38    1
    31    18    13   ar
    32    18    39    1
    33    19    20    2
    34    19    40    1
    35    20    21    1
    36    20    25    1
    37    21    22    1
    38    21    23    1
    39    21    24    1
    40    25    26    2
    41    25    10   am
    42    27     4   ar
    43    27    41    1
@<TRIPOS>MOLECULE
*****
 41 43 0 0 0
SMALL
GASTEIGER

@<TRIPOS>ATOM
      1 N           2.8088    7.5768   -1.9616 N.am    1  UNL11      -0.3253
      2 C           1.8578    6.5410   -1.8212 C.2     1  UNL11       0.2415
      3 O           0.7463    6.6725   -2.3903 O.2     1  UNL11      -0.2704
      4 C           2.1481    5.3444   -1.0377 C.ar    1  UNL11       0.0369
      5 C           3.0146    5.4173    0.0325 C.ar    1  UNL11      -0.0496
      6 C           3.2698    4.2714    0.7543 C.ar    1  UNL11      -0.0606
      7 C           2.6596    3.0630    0.4037 C.ar    1  UNL11      -0.0525
      8 C           1.7924    2.9697   -0.6603 C.ar    1  UNL11       0.0196
      9 C           1.1136    1.7487   -1.0956 C.3     1  UNL11       0.1985
     10 N          -0.1713    1.5246   -0.4883 N.am    1  UNL11      -0.0155
     11 N          -0.9308    0.4971   -0.7253 N.2     1  UNL11      -0.0009
     12 C          -2.1362    0.2496   -0.1787 C.2     1  UNL11       0.1377
     13 C          -2.8337   -0.9451   -0.5639 C.ar    1  UNL11       0.0061
     14 C          -2.1652   -2.0876   -0.9444 C.ar    1  UNL11      -0.0524
     15 C          -2.8685   -3.2258   -1.3110 C.ar    1  UNL11      -0.0611
     16 C          -4.2370   -3.2340   -1.3014 C.ar    1  UNL11      -0.0617
     17 C          -4.9224   -2.1037   -0.9249 C.ar    1  UNL11      -0.0611
     18 C          -4.2267   -0.9880   -0.5655 C.ar    1  UNL11      -0.0524
     19 C          -2.6113    1.1660    0.7131 C.2     1  UNL11      -0.0084
     20 C          -1.8354    2.2799    0.9980 C.2     1  UNL11       0.1730
     21 C          -2.3568    3.2648    1.9629 C.3     1  UNL11       0.4270
     22 F          -1.4643    4.3228    2.1417 F       1  UNL11      -0.1655
     23 F          -2.6163    2.6750    3.1825 F       1  UNL11      -0.1655
     24 F          -3.5669    3.7270    1.4752 F       1  UNL11      -0.1655
     25 C          -0.6184    2.4429    0.3881 C.2     1  UNL11       0.4446
     26 O           0.0366    3.4780    0.6916 O.2     1  UNL11      -0.2116
     27 C           1.5586    4.1444   -1.3649 C.ar    1  UNL11      -0.0404
     28 H           3.0967    7.8683   -2.9099 H       1  UNL11       0.1453
     29 H           3.1980    8.0227   -1.1150 H       1  UNL11       0.1453
     30 H           3.4785    6.3678    0.2879 H       1  UNL11       0.0625
     31 H           3.9493    4.3003    1.6033 H       1  UNL11       0.0618
     32 H           2.8548    2.1575    0.9671 H       1  UNL11       0.0622
     33 H           1.8131    0.8897   -0.8751 H       1  UNL11       0.1103
     34 H           0.9659    1.7638   -2.1949 H       1  UNL11       0.1103
     35 H          -1.0874   -2.1408   -0.9716 H       1  UNL11       0.0624
     36 H          -2.3093   -4.1002   -1.6027 H       1  UNL11       0.0618
     37 H          -4.7827   -4.1461   -1.5954 H       1  UNL11       0.0618
     38 H          -6.0029   -2.1581   -0.9329 H       1  UNL11       0.0618
     39 H          -4.7423   -0.0995   -0.2696 H       1  UNL11       0.0624
     40 H          -3.5732    1.0292    1.1897 H       1  UNL11       0.0650
     41 H           0.8816    4.1067   -2.2077 H       1  UNL11       0.0630
@<TRIPOS>BOND
     1     1     2   am
     2     1    28    1
     3     1    29    1
     4     2     3    2
     5     2     4    1
     6     4     5   ar
     7     5     6   ar
     8     5    30    1
     9     6     7   ar
    10     6    31    1
    11     7     8   ar
    12     7    32    1
    13     8     9    1
    14     8    27   ar
    15     9    10    1
    16     9    33    1
    17     9    34    1
    18    10    11    1
    19    11    12    2
    20    12    13    1
    21    12    19    1
    22    13    14   ar
    23    14    15   ar
    24    14    35    1
    25    15    16   ar
    26    15    36    1
    27    16    17   ar
    28    16    37    1
    29    17    18   ar
    30    17    38    1
    31    18    13   ar
    32    18    39    1
    33    19    20    2
    34    19    40    1
    35    20    21    1
    36    20    25    1
    37    21    22    1
    38    21    23    1
    39    21    24    1
    40    25    26    2
    41    25    10   am
    42    27     4   ar
    43    27    41    1
@<TRIPOS>MOLECULE
*****
 41 43 0 0 0
SMALL
GASTEIGER

@<TRIPOS>ATOM
      1 N           2.8695    5.5842    1.9062 N.am    1  UNL11      -0.3253
      2 C           3.8862    4.6138    1.7593 C.2     1  UNL11       0.2415
      3 O           5.0599    4.9292    2.0749 O.2     1  UNL11      -0.2704
      4 C           3.5924    3.2761    1.2550 C.ar    1  UNL11       0.0369
      5 C           4.3504    2.2025    1.6725 C.ar    1  UNL11      -0.0496
      6 C           4.0500    0.9511    1.1797 C.ar    1  UNL11      -0.0606
      7 C           2.9971    0.7802    0.2754 C.ar    1  UNL11      -0.0525
      8 C           2.2294    1.8383   -0.1533 C.ar    1  UNL11       0.0196
      9 C           1.1136    1.7487   -1.0956 C.3     1  UNL11       0.1985
     10 N          -0.1713    1.5246   -0.4883 N.am    1  UNL11      -0.0155
     11 N          -0.9308    0.4971   -0.7253 N.2     1  UNL11      -0.0009
     12 C          -2.1362    0.2496   -0.1787 C.2     1  UNL11       0.1377
     13 C          -2.8337   -0.9451   -0.5639 C.ar    1  UNL11       0.0061
     14 C          -2.1652   -2.0876   -0.9444 C.ar    1  UNL11      -0.0524
     15 C          -2.8685   -3.2258   -1.3110 C.ar    1  UNL11      -0.0611
     16 C          -4.2370   -3.2340   -1.3014 C.ar    1  UNL11      -0.0617
     17 C          -4.9224   -2.1037   -0.9249 C.ar    1  UNL11      -0.0611
     18 C          -4.2267   -0.9880   -0.5655 C.ar    1  UNL11      -0.0524
     19 C          -2.6113    1.1660    0.7131 C.2     1  UNL11      -0.0084
     20 C          -1.8354    2.2799    0.9980 C.2     1  UNL11       0.1730
     21 C          -2.3568    3.2648    1.9629 C.3     1  UNL11       0.4270
     22 F          -1.4643    4.3228    2.1417 F       1  UNL11      -0.1655
     23 F          -2.6163    2.6750    3.1825 F       1  UNL11      -0.1655
     24 F          -3.5669    3.7270    1.4752 F       1  UNL11      -0.1655
     25 C          -0.6184    2.4429    0.3881 C.2     1  UNL11       0.4446
     26 O           0.0366    3.4780    0.6916 O.2     1  UNL11      -0.2116
     27 C           2.5607    3.0847    0.3642 C.ar    1  UNL11      -0.0404
     28 H           2.7233    6.0215    2.8306 H       1  UNL11       0.1453
     29 H           2.2922    5.8380    1.0881 H       1  UNL11       0.1453
     30 H           5.1651    2.3581    2.3767 H       1  UNL11       0.0625
     31 H           4.6317    0.0866    1.4921 H       1  UNL11       0.0618
     32 H           2.7542   -0.2013   -0.1161 H       1  UNL11       0.0622
     33 H           1.3624    0.9172   -1.8184 H       1  UNL11       0.1103
     34 H           1.0426    2.6797   -1.6946 H       1  UNL11       0.1103
     35 H          -1.0874   -2.1408   -0.9716 H       1  UNL11       0.0624
     36 H          -2.3093   -4.1002   -1.6027 H       1  UNL11       0.0618
     37 H          -4.7827   -4.1461   -1.5954 H       1  UNL11       0.0618
     38 H          -6.0029   -2.1581   -0.9329 H       1  UNL11       0.0618
     39 H          -4.7423   -0.0995   -0.2696 H       1  UNL11       0.0624
     40 H          -3.5732    1.0292    1.1897 H       1  UNL11       0.0650
     41 H           1.9771    3.9389    0.0482 H       1  UNL11       0.0630
@<TRIPOS>BOND
     1     1     2   am
     2     1    28    1
     3     1    29    1
     4     2     3    2
     5     2     4    1
     6     4     5   ar
     7     5     6   ar
     8     5    30    1
     9     6     7   ar
    10     6    31    1
    11     7     8   ar
    12     7    32    1
    13     8     9    1
    14     8    27   ar
    15     9    10    1
    16     9    33    1
    17     9    34    1
    18    10    11    1
    19    11    12    2
    20    12    13    1
    21    12    19    1
    22    13    14   ar
    23    14    15   ar
    24    14    35    1
    25    15    16   ar
    26    15    36    1
    27    16    17   ar
    28    16    37    1
    29    17    18   ar
    30    17    38    1
    31    18    13   ar
    32    18    39    1
    33    19    20    2
    34    19    40    1
    35    20    21    1
    36    20    25    1
    37    21    22    1
    38    21    23    1
    39    21    24    1
    40    25    26    2
    41    25    10   am
    42    27     4   ar
    43    27    41    1
@<TRIPOS>MOLECULE
*****
 41 43 0 0 0
SMALL
GASTEIGER

@<TRIPOS>ATOM
      1 N          -0.8887    0.8520   -6.8208 N.am    1  UNL11      -0.3253
      2 C          -0.4756    1.6550   -5.7338 C.2     1  UNL11       0.2415
      3 O          -0.9345    2.8204   -5.6466 O.2     1  UNL11      -0.2704
      4 C           0.4599    1.1540   -4.7317 C.ar    1  UNL11       0.0369
      5 C           1.4026    0.2107   -5.0826 C.ar    1  UNL11      -0.0496
      6 C           2.2729   -0.2440   -4.1156 C.ar    1  UNL11      -0.0606
      7 C           2.1965    0.2450   -2.8077 C.ar    1  UNL11      -0.0525
      8 C           1.2634    1.1859   -2.4380 C.ar    1  UNL11       0.0196
      9 C           1.1136    1.7487   -1.0956 C.3     1  UNL11       0.1985
     10 N          -0.1713    1.5246   -0.4883 N.am    1  UNL11      -0.0155
     11 N          -0.9308    0.4971   -0.7253 N.2     1  UNL11      -0.0009
     12 C          -2.1362    0.2496   -0.1787 C.2     1  UNL11       0.1377
     13 C          -2.8337   -0.9451   -0.5639 C.ar    1  UNL11       0.0061
     14 C          -2.3039   -1.8372   -1.4698 C.ar    1  UNL11      -0.0524
     15 C          -3.0033   -2.9826   -1.8211 C.ar    1  UNL11      -0.0611
     16 C          -4.2300   -3.2465   -1.2750 C.ar    1  UNL11      -0.0617
     17 C          -4.7757   -2.3685   -0.3693 C.ar    1  UNL11      -0.0611
     18 C          -4.0846   -1.2445   -0.0273 C.ar    1  UNL11      -0.0524
     19 C          -2.6113    1.1660    0.7131 C.2     1  UNL11      -0.0084
     20 C          -1.8354    2.2799    0.9980 C.2     1  UNL11       0.1730
     21 C          -2.3568    3.2648    1.9629 C.3     1  UNL11       0.4270
     22 F          -1.4643    4.3228    2.1417 F       1  UNL11      -0.1655
     23 F          -2.6163    2.6750    3.1825 F       1  UNL11      -0.1655
     24 F          -3.5669    3.7270    1.4752 F       1  UNL11      -0.1655
     25 C          -0.6184    2.4429    0.3881 C.2     1  UNL11       0.4446
     26 O           0.0366    3.4780    0.6916 O.2     1  UNL11      -0.2116
     27 C           0.4028    1.6213   -3.4384 C.ar    1  UNL11      -0.0404
     28 H          -1.8979    0.6869   -6.9673 H       1  UNL11       0.1453
     29 H          -0.1754    0.4455   -7.4477 H       1  UNL11       0.1453
     30 H           1.4444   -0.1562   -6.1061 H       1  UNL11       0.0625
     31 H           3.0263   -0.9880   -4.3648 H       1  UNL11       0.0618
     32 H           2.8781   -0.1073   -2.0418 H       1  UNL11       0.0622
     33 H           1.3265    2.8548   -1.1795 H       1  UNL11       0.1103
     34 H           1.8827    1.3279   -0.4160 H       1  UNL11       0.1103
     35 H          -1.3414   -1.6825   -1.9331 H       1  UNL11       0.0624
     36 H          -2.5552   -3.6565   -2.5335 H       1  UNL11       0.0618
     37 H          -4.7745   -4.1611   -1.5638 H       1  UNL11       0.0618
     38 H          -5.7473   -2.6195    0.0352 H       1  UNL11       0.0618
     39 H          -4.4927   -0.5499    0.6754 H       1  UNL11       0.0624
     40 H          -3.5732    1.0292    1.1897 H       1  UNL11       0.0650
     41 H          -0.3434    2.3613   -3.1819 H       1  UNL11       0.0630
@<TRIPOS>BOND
     1     1     2   am
     2     1    28    1
     3     1    29    1
     4     2     3    2
     5     2     4    1
     6     4     5   ar
     7     5     6   ar
     8     5    30    1
     9     6     7   ar
    10     6    31    1
    11     7     8   ar
    12     7    32    1
    13     8     9    1
    14     8    27   ar
    15     9    10    1
    16     9    33    1
    17     9    34    1
    18    10    11    1
    19    11    12    2
    20    12    13    1
    21    12    19    1
    22    13    14   ar
    23    14    15   ar
    24    14    35    1
    25    15    16   ar
    26    15    36    1
    27    16    17   ar
    28    16    37    1
    29    17    18   ar
    30    17    38    1
    31    18    13   ar
    32    18    39    1
    33    19    20    2
    34    19    40    1
    35    20    21    1
    36    20    25    1
    37    21    22    1
    38    21    23    1
    39    21    24    1
    40    25    26    2
    41    25    10   am
    42    27     4   ar
    43    27    41    1
@<TRIPOS>MOLECULE
*****
 41 43 0 0 0
SMALL
GASTEIGER

@<TRIPOS>ATOM
      1 N           5.2364    6.1828   -2.0584 N.am    1  UNL11      -0.3253
      2 C           4.6871    5.0980   -1.3383 C.2     1  UNL11       0.2415
      3 O           5.4610    4.3874   -0.6508 O.2     1  UNL11      -0.2704
      4 C           3.2589    4.8010   -1.3844 C.ar    1  UNL11       0.0369
      5 C           2.3510    5.8206   -1.5791 C.ar    1  UNL11      -0.0496
      6 C           1.0088    5.5105   -1.6182 C.ar    1  UNL11      -0.0606
      7 C           0.5828    4.1876   -1.4631 C.ar    1  UNL11      -0.0525
      8 C           1.4727    3.1567   -1.2679 C.ar    1  UNL11       0.0196
      9 C           1.1136    1.7487   -1.0956 C.3     1  UNL11       0.1985
     10 N          -0.1713    1.5246   -0.4883 N.am    1  UNL11      -0.0155
     11 N          -0.9308    0.4971   -0.7253 N.2     1  UNL11      -0.0009
     12 C          -2.1362    0.2496   -0.1787 C.2     1  UNL11       0.1377
     13 C          -2.8337   -0.9451   -0.5639 C.ar    1  UNL11       0.0061
     14 C          -3.6896   -1.5975    0.2957 C.ar    1  UNL11      -0.0524
     15 C          -4.3485   -2.7499   -0.1070 C.ar    1  UNL11      -0.0611
     16 C          -4.1605   -3.2586   -1.3634 C.ar    1  UNL11      -0.0617
     17 C          -3.3104   -2.6221   -2.2359 C.ar    1  UNL11      -0.0611
     18 C          -2.6653   -1.4901   -1.8355 C.ar    1  UNL11      -0.0524
     19 C          -2.6113    1.1660    0.7131 C.2     1  UNL11      -0.0084
     20 C          -1.8354    2.2799    0.9980 C.2     1  UNL11       0.1730
     21 C          -2.3568    3.2648    1.9629 C.3     1  UNL11       0.4270
     22 F          -1.4643    4.3228    2.1417 F       1  UNL11      -0.1655
     23 F          -2.6163    2.6750    3.1825 F       1  UNL11      -0.1655
     24 F          -3.5669    3.7270    1.4752 F       1  UNL11      -0.1655
     25 C          -0.6184    2.4429    0.3881 C.2     1  UNL11       0.4446
     26 O           0.0366    3.4780    0.6916 O.2     1  UNL11      -0.2116
     27 C           2.8172    3.5061   -1.2340 C.ar    1  UNL11      -0.0404
     28 H           5.7766    6.9009   -1.5488 H       1  UNL11       0.1453
     29 H           5.0879    6.2378   -3.0791 H       1  UNL11       0.1453
     30 H           2.7043    6.8429   -1.6975 H       1  UNL11       0.0625
     31 H           0.2710    6.2952   -1.7705 H       1  UNL11       0.0618
     32 H          -0.4712    3.9358   -1.4935 H       1  UNL11       0.0622
     33 H           1.9331    1.2757   -0.4787 H       1  UNL11       0.1103
     34 H           1.1149    1.2305   -2.0764 H       1  UNL11       0.1103
     35 H          -3.8774   -1.2437    1.2981 H       1  UNL11       0.0624
     36 H          -5.0103   -3.2318    0.5947 H       1  UNL11       0.0618
     37 H          -4.6911   -4.1756   -1.6697 H       1  UNL11       0.0618
     38 H          -3.1939   -3.0614   -3.2178 H       1  UNL11       0.0618
     39 H          -2.0003   -0.9812   -2.5001 H       1  UNL11       0.0624
     40 H          -3.5732    1.0292    1.1897 H       1  UNL11       0.0650
     41 H           3.5442    2.7197   -1.0822 H       1  UNL11       0.0630
@<TRIPOS>BOND
     1     1     2   am
     2     1    28    1
     3     1    29    1
     4     2     3    2
     5     2     4    1
     6     4     5   ar
     7     5     6   ar
     8     5    30    1
     9     6     7   ar
    10     6    31    1
    11     7     8   ar
    12     7    32    1
    13     8     9    1
    14     8    27   ar
    15     9    10    1
    16     9    33    1
    17     9    34    1
    18    10    11    1
    19    11    12    2
    20    12    13    1
    21    12    19    1
    22    13    14   ar
    23    14    15   ar
    24    14    35    1
    25    15    16   ar
    26    15    36    1
    27    16    17   ar
    28    16    37    1
    29    17    18   ar
    30    17    38    1
    31    18    13   ar
    32    18    39    1
    33    19    20    2
    34    19    40    1
    35    20    21    1
    36    20    25    1
    37    21    22    1
    38    21    23    1
    39    21    24    1
    40    25    26    2
    41    25    10   am
    42    27     4   ar
    43    27    41    1
@<TRIPOS>MOLECULE
*****
 41 43 0 0 0
SMALL
GASTEIGER

@<TRIPOS>ATOM
      1 N           4.5722    1.7033   -4.9480 N.am    1  UNL11      -0.3253
      2 C           3.6826    0.6183   -5.1168 C.2     1  UNL11       0.2415
      3 O           3.6531    0.0408   -6.2312 O.2     1  UNL11      -0.2704
      4 C           2.8153    0.1713   -4.0313 C.ar    1  UNL11       0.0369
      5 C           2.4486   -1.1554   -3.9468 C.ar    1  UNL11      -0.0496
      6 C           1.6289   -1.5488   -2.9112 C.ar    1  UNL11      -0.0606
      7 C           1.1818   -0.6173   -1.9689 C.ar    1  UNL11      -0.0525
      8 C           1.5363    0.7103   -2.0359 C.ar    1  UNL11       0.0196
      9 C           1.1136    1.7487   -1.0956 C.3     1  UNL11       0.1985
     10 N          -0.1713    1.5246   -0.4883 N.am    1  UNL11      -0.0155
     11 N          -0.9308    0.4971   -0.7253 N.2     1  UNL11      -0.0009
     12 C          -2.1362    0.2496   -0.1787 C.2     1  UNL11       0.1377
     13 C          -2.8337   -0.9451   -0.5639 C.ar    1  UNL11       0.0061
     14 C          -2.1652   -2.0876   -0.9444 C.ar    1  UNL11      -0.0524
     15 C          -2.8685   -3.2258   -1.3110 C.ar    1  UNL11      -0.0611
     16 C          -4.2370   -3.2340   -1.3014 C.ar    1  UNL11      -0.0617
     17 C          -4.9224   -2.1037   -0.9249 C.ar    1  UNL11      -0.0611
     18 C          -4.2267   -0.9880   -0.5655 C.ar    1  UNL11      -0.0524
     19 C          -2.6113    1.1660    0.7131 C.2     1  UNL11      -0.0084
     20 C          -1.8354    2.2799    0.9980 C.2     1  UNL11       0.1730
     21 C          -2.3568    3.2648    1.9629 C.3     1  UNL11       0.4270
     22 F          -1.4643    4.3228    2.1417 F       1  UNL11      -0.1655
     23 F          -2.6163    2.6750    3.1825 F       1  UNL11      -0.1655
     24 F          -3.5669    3.7270    1.4752 F       1  UNL11      -0.1655
     25 C          -0.6184    2.4429    0.3881 C.2     1  UNL11       0.4446
     26 O           0.0366    3.4780    0.6916 O.2     1  UNL11      -0.2116
     27 C           2.3634    1.0709   -3.0928 C.ar    1  UNL11      -0.0404
     28 H           5.5786    1.5599   -5.1319 H       1  UNL11       0.1453
     29 H           4.2007    2.6180   -4.6444 H       1  UNL11       0.1453
     30 H           2.8080   -1.8633   -4.6908 H       1  UNL11       0.0625
     31 H           1.3242   -2.5891   -2.8205 H       1  UNL11       0.0618
     32 H           0.5375   -0.9193   -1.1510 H       1  UNL11       0.0622
     33 H           1.1206    2.7255   -1.6627 H       1  UNL11       0.1103
     34 H           1.8567    1.8506   -0.2782 H       1  UNL11       0.1103
     35 H          -1.0874   -2.1408   -0.9716 H       1  UNL11       0.0624
     36 H          -2.3093   -4.1002   -1.6027 H       1  UNL11       0.0618
     37 H          -4.7827   -4.1461   -1.5954 H       1  UNL11       0.0618
     38 H          -6.0029   -2.1581   -0.9329 H       1  UNL11       0.0618
     39 H          -4.7423   -0.0995   -0.2696 H       1  UNL11       0.0624
     40 H          -3.5732    1.0292    1.1897 H       1  UNL11       0.0650
     41 H           2.6616    2.1074   -3.1754 H       1  UNL11       0.0630
@<TRIPOS>BOND
     1     1     2   am
     2     1    28    1
     3     1    29    1
     4     2     3    2
     5     2     4    1
     6     4     5   ar
     7     5     6   ar
     8     5    30    1
     9     6     7   ar
    10     6    31    1
    11     7     8   ar
    12     7    32    1
    13     8     9    1
    14     8    27   ar
    15     9    10    1
    16     9    33    1
    17     9    34    1
    18    10    11    1
    19    11    12    2
    20    12    13    1
    21    12    19    1
    22    13    14   ar
    23    14    15   ar
    24    14    35    1
    25    15    16   ar
    26    15    36    1
    27    16    17   ar
    28    16    37    1
    29    17    18   ar
    30    17    38    1
    31    18    13   ar
    32    18    39    1
    33    19    20    2
    34    19    40    1
    35    20    21    1
    36    20    25    1
    37    21    22    1
    38    21    23    1
    39    21    24    1
    40    25    26    2
    41    25    10   am
    42    27     4   ar
    43    27    41    1
@<TRIPOS>MOLECULE
*****
 41 43 0 0 0
SMALL
GASTEIGER

@<TRIPOS>ATOM
      1 N           6.0713    3.2363   -1.2106 N.am    1  UNL11      -0.3253
      2 C           5.3732    4.0367   -0.2784 C.2     1  UNL11       0.2415
      3 O           6.0403    4.7121    0.5434 O.2     1  UNL11      -0.2704
      4 C           3.9146    4.0854   -0.2611 C.ar    1  UNL11       0.0369
      5 C           3.2703    5.2335    0.1493 C.ar    1  UNL11      -0.0496
      6 C           1.8923    5.2507    0.1552 C.ar    1  UNL11      -0.0606
      7 C           1.1683    4.1243   -0.2477 C.ar    1  UNL11      -0.0525
      8 C           1.7924    2.9697   -0.6603 C.ar    1  UNL11       0.0196
      9 C           1.1136    1.7487   -1.0956 C.3     1  UNL11       0.1985
     10 N          -0.1713    1.5246   -0.4883 N.am    1  UNL11      -0.0155
     11 N          -0.9308    0.4971   -0.7253 N.2     1  UNL11      -0.0009
     12 C          -2.1362    0.2496   -0.1787 C.2     1  UNL11       0.1377
     13 C          -2.8337   -0.9451   -0.5639 C.ar    1  UNL11       0.0061
     14 C          -2.3039   -1.8372   -1.4698 C.ar    1  UNL11      -0.0524
     15 C          -3.0033   -2.9826   -1.8211 C.ar    1  UNL11      -0.0611
     16 C          -4.2300   -3.2465   -1.2750 C.ar    1  UNL11      -0.0617
     17 C          -4.7757   -2.3685   -0.3693 C.ar    1  UNL11      -0.0611
     18 C          -4.0846   -1.2445   -0.0273 C.ar    1  UNL11      -0.0524
     19 C          -2.6113    1.1660    0.7131 C.2     1  UNL11      -0.0084
     20 C          -1.8354    2.2799    0.9980 C.2     1  UNL11       0.1730
     21 C          -2.3568    3.2648    1.9629 C.3     1  UNL11       0.4270
     22 F          -1.4643    4.3228    2.1417 F       1  UNL11      -0.1655
     23 F          -2.6163    2.6750    3.1825 F       1  UNL11      -0.1655
     24 F          -3.5669    3.7270    1.4752 F       1  UNL11      -0.1655
     25 C          -0.6184    2.4429    0.3881 C.2     1  UNL11       0.4446
     26 O           0.0366    3.4780    0.6916 O.2     1  UNL11      -0.2116
     27 C           3.1819    2.9883   -0.6535 C.ar    1  UNL11      -0.0404
     28 H           6.7701    3.6801   -1.8286 H       1  UNL11       0.1453
     29 H           5.8705    2.2241   -1.2569 H       1  UNL11       0.1453
     30 H           3.8533    6.0986    0.4588 H       1  UNL11       0.0625
     31 H           1.3584    6.1432    0.4742 H       1  UNL11       0.0618
     32 H           0.0842    4.1305   -0.2466 H       1  UNL11       0.0622
     33 H           1.8131    0.8897   -0.8751 H       1  UNL11       0.1103
     34 H           0.9659    1.7638   -2.1949 H       1  UNL11       0.1103
     35 H          -1.3414   -1.6825   -1.9331 H       1  UNL11       0.0624
     36 H          -2.5552   -3.6565   -2.5335 H       1  UNL11       0.0618
     37 H          -4.7745   -4.1611   -1.5638 H       1  UNL11       0.0618
     38 H          -5.7473   -2.6195    0.0352 H       1  UNL11       0.0618
     39 H          -4.4927   -0.5499    0.6754 H       1  UNL11       0.0624
     40 H          -3.5732    1.0292    1.1897 H       1  UNL11       0.0650
     41 H           3.7048    2.0967   -0.9722 H       1  UNL11       0.0630
@<TRIPOS>BOND
     1     1     2   am
     2     1    28    1
     3     1    29    1
     4     2     3    2
     5     2     4    1
     6     4     5   ar
     7     5     6   ar
     8     5    30    1
     9     6     7   ar
    10     6    31    1
    11     7     8   ar
    12     7    32    1
    13     8     9    1
    14     8    27   ar
    15     9    10    1
    16     9    33    1
    17     9    34    1
    18    10    11    1
    19    11    12    2
    20    12    13    1
    21    12    19    1
    22    13    14   ar
    23    14    15   ar
    24    14    35    1
    25    15    16   ar
    26    15    36    1
    27    16    17   ar
    28    16    37    1
    29    17    18   ar
    30    17    38    1
    31    18    13   ar
    32    18    39    1
    33    19    20    2
    34    19    40    1
    35    20    21    1
    36    20    25    1
    37    21    22    1
    38    21    23    1
    39    21    24    1
    40    25    26    2
    41    25    10   am
    42    27     4   ar
    43    27    41    1
@<TRIPOS>MOLECULE
*****
 41 43 0 0 0
SMALL
GASTEIGER

@<TRIPOS>ATOM
      1 N           6.1510    5.1481    0.1175 N.am    1  UNL11      -0.3253
      2 C           5.3732    4.0367   -0.2784 C.2     1  UNL11       0.2415
      3 O           5.9688    2.9953   -0.6491 O.2     1  UNL11      -0.2704
      4 C           3.9146    4.0854   -0.2611 C.ar    1  UNL11       0.0369
      5 C           3.2703    5.2335    0.1493 C.ar    1  UNL11      -0.0496
      6 C           1.8923    5.2507    0.1552 C.ar    1  UNL11      -0.0606
      7 C           1.1683    4.1243   -0.2477 C.ar    1  UNL11      -0.0525
      8 C           1.7924    2.9697   -0.6603 C.ar    1  UNL11       0.0196
      9 C           1.1136    1.7487   -1.0956 C.3     1  UNL11       0.1985
     10 N          -0.1713    1.5246   -0.4883 N.am    1  UNL11      -0.0155
     11 N          -0.9308    0.4971   -0.7253 N.2     1  UNL11      -0.0009
     12 C          -2.1362    0.2496   -0.1787 C.2     1  UNL11       0.1377
     13 C          -2.8337   -0.9451   -0.5639 C.ar    1  UNL11       0.0061
     14 C          -2.1652   -2.0876   -0.9444 C.ar    1  UNL11      -0.0524
     15 C          -2.8685   -3.2258   -1.3110 C.ar    1  UNL11      -0.0611
     16 C          -4.2370   -3.2340   -1.3014 C.ar    1  UNL11      -0.0617
     17 C          -4.9224   -2.1037   -0.9249 C.ar    1  UNL11      -0.0611
     18 C          -4.2267   -0.9880   -0.5655 C.ar    1  UNL11      -0.0524
     19 C          -2.6113    1.1660    0.7131 C.2     1  UNL11      -0.0084
     20 C          -1.8354    2.2799    0.9980 C.2     1  UNL11       0.1730
     21 C          -2.3568    3.2648    1.9629 C.3     1  UNL11       0.4270
     22 F          -1.4643    4.3228    2.1417 F       1  UNL11      -0.1655
     23 F          -2.6163    2.6750    3.1825 F       1  UNL11      -0.1655
     24 F          -3.5669    3.7270    1.4752 F       1  UNL11      -0.1655
     25 C          -0.6184    2.4429    0.3881 C.2     1  UNL11       0.4446
     26 O           0.0366    3.4780    0.6916 O.2     1  UNL11      -0.2116
     27 C           3.1819    2.9883   -0.6535 C.ar    1  UNL11      -0.0404
     28 H           6.8472    5.0301    0.8714 H       1  UNL11       0.1453
     29 H           6.0094    6.0565   -0.3534 H       1  UNL11       0.1453
     30 H           3.8533    6.0986    0.4588 H       1  UNL11       0.0625
     31 H           1.3584    6.1432    0.4742 H       1  UNL11       0.0618
     32 H           0.0842    4.1305   -0.2466 H       1  UNL11       0.0622
     33 H           1.8131    0.8897   -0.8751 H       1  UNL11       0.1103
     34 H           0.9659    1.7638   -2.1949 H       1  UNL11       0.1103
     35 H          -1.0874   -2.1408   -0.9716 H       1  UNL11       0.0624
     36 H          -2.3093   -4.1002   -1.6027 H       1  UNL11       0.0618
     37 H          -4.7827   -4.1461   -1.5954 H       1  UNL11       0.0618
     38 H          -6.0029   -2.1581   -0.9329 H       1  UNL11       0.0618
     39 H          -4.7423   -0.0995   -0.2696 H       1  UNL11       0.0624
     40 H          -3.5732    1.0292    1.1897 H       1  UNL11       0.0650
     41 H           3.7048    2.0967   -0.9722 H       1  UNL11       0.0630
@<TRIPOS>BOND
     1     1     2   am
     2     1    28    1
     3     1    29    1
     4     2     3    2
     5     2     4    1
     6     4     5   ar
     7     5     6   ar
     8     5    30    1
     9     6     7   ar
    10     6    31    1
    11     7     8   ar
    12     7    32    1
    13     8     9    1
    14     8    27   ar
    15     9    10    1
    16     9    33    1
    17     9    34    1
    18    10    11    1
    19    11    12    2
    20    12    13    1
    21    12    19    1
    22    13    14   ar
    23    14    15   ar
    24    14    35    1
    25    15    16   ar
    26    15    36    1
    27    16    17   ar
    28    16    37    1
    29    17    18   ar
    30    17    38    1
    31    18    13   ar
    32    18    39    1
    33    19    20    2
    34    19    40    1
    35    20    21    1
    36    20    25    1
    37    21    22    1
    38    21    23    1
    39    21    24    1
    40    25    26    2
    41    25    10   am
    42    27     4   ar
    43    27    41    1
@<TRIPOS>MOLECULE
*****
 41 43 0 0 0
SMALL
GASTEIGER

@<TRIPOS>ATOM
      1 N           0.7615   -3.4130   -0.9003 N.am    1  UNL11      -0.3253
      2 C           1.9521   -3.0092   -0.2551 C.2     1  UNL11       0.2415
      3 O           2.5407   -3.8386    0.4812 O.2     1  UNL11      -0.2704
      4 C           2.4939   -1.6655   -0.4322 C.ar    1  UNL11       0.0369
      5 C           3.8553   -1.4586   -0.3598 C.ar    1  UNL11      -0.0496
      6 C           4.3384   -0.1793   -0.5310 C.ar    1  UNL11      -0.0606
      7 C           3.4611    0.8825   -0.7727 C.ar    1  UNL11      -0.0525
      8 C           2.1000    0.6966   -0.8484 C.ar    1  UNL11       0.0196
      9 C           1.1136    1.7487   -1.0956 C.3     1  UNL11       0.1985
     10 N          -0.1713    1.5246   -0.4883 N.am    1  UNL11      -0.0155
     11 N          -0.9308    0.4971   -0.7253 N.2     1  UNL11      -0.0009
     12 C          -2.1362    0.2496   -0.1787 C.2     1  UNL11       0.1377
     13 C          -2.8337   -0.9451   -0.5639 C.ar    1  UNL11       0.0061
     14 C          -2.6740   -1.5118   -1.8091 C.ar    1  UNL11      -0.0524
     15 C          -3.3626   -2.6667   -2.1505 C.ar    1  UNL11      -0.0611
     16 C          -4.2115   -3.2629   -1.2580 C.ar    1  UNL11      -0.0617
     17 C          -4.3845   -2.7126   -0.0105 C.ar    1  UNL11      -0.0611
     18 C          -3.7057   -1.5778    0.3202 C.ar    1  UNL11      -0.0524
     19 C          -2.6113    1.1660    0.7131 C.2     1  UNL11      -0.0084
     20 C          -1.8354    2.2799    0.9980 C.2     1  UNL11       0.1730
     21 C          -2.3568    3.2648    1.9629 C.3     1  UNL11       0.4270
     22 F          -1.4643    4.3228    2.1417 F       1  UNL11      -0.1655
     23 F          -2.6163    2.6750    3.1825 F       1  UNL11      -0.1655
     24 F          -3.5669    3.7270    1.4752 F       1  UNL11      -0.1655
     25 C          -0.6184    2.4429    0.3881 C.2     1  UNL11       0.4446
     26 O           0.0366    3.4780    0.6916 O.2     1  UNL11      -0.2116
     27 C           1.6488   -0.6057   -0.6710 C.ar    1  UNL11      -0.0404
     28 H           0.7781   -4.2499   -1.5058 H       1  UNL11       0.1453
     29 H          -0.1020   -2.8650   -0.7551 H       1  UNL11       0.1453
     30 H           4.5200   -2.2991   -0.1708 H       1  UNL11       0.0625
     31 H           5.4079    0.0124   -0.4790 H       1  UNL11       0.0618
     32 H           3.8336    1.8914   -0.9092 H       1  UNL11       0.0622
     33 H           1.0125    1.8449   -2.2165 H       1  UNL11       0.1103
     34 H           1.4928    2.7235   -0.7261 H       1  UNL11       0.1103
     35 H          -2.0186   -1.0868   -2.5542 H       1  UNL11       0.0624
     36 H          -3.2109   -3.0799   -3.1347 H       1  UNL11       0.0618
     37 H          -4.7523   -4.1806   -1.5434 H       1  UNL11       0.0618
     38 H          -5.0655   -3.2192    0.6605 H       1  UNL11       0.0618
     39 H          -3.8272   -1.1352    1.2858 H       1  UNL11       0.0624
     40 H          -3.5732    1.0292    1.1897 H       1  UNL11       0.0650
     41 H           0.5838   -0.7875   -0.7244 H       1  UNL11       0.0630
@<TRIPOS>BOND
     1     1     2   am
     2     1    28    1
     3     1    29    1
     4     2     3    2
     5     2     4    1
     6     4     5   ar
     7     5     6   ar
     8     5    30    1
     9     6     7   ar
    10     6    31    1
    11     7     8   ar
    12     7    32    1
    13     8     9    1
    14     8    27   ar
    15     9    10    1
    16     9    33    1
    17     9    34    1
    18    10    11    1
    19    11    12    2
    20    12    13    1
    21    12    19    1
    22    13    14   ar
    23    14    15   ar
    24    14    35    1
    25    15    16   ar
    26    15    36    1
    27    16    17   ar
    28    16    37    1
    29    17    18   ar
    30    17    38    1
    31    18    13   ar
    32    18    39    1
    33    19    20    2
    34    19    40    1
    35    20    21    1
    36    20    25    1
    37    21    22    1
    38    21    23    1
    39    21    24    1
    40    25    26    2
    41    25    10   am
    42    27     4   ar
    43    27    41    1
@<TRIPOS>MOLECULE
*****
 41 43 0 0 0
SMALL
GASTEIGER

@<TRIPOS>ATOM
      1 N           2.7036   -0.0230   -6.8172 N.am    1  UNL11      -0.3253
      2 C           2.6414   -0.0230   -5.4054 C.2     1  UNL11       0.2415
      3 O           3.2795   -0.9062   -4.7815 O.2     1  UNL11      -0.2704
      4 C           1.8591    0.9727   -4.6795 C.ar    1  UNL11       0.0369
      5 C           1.1631    1.9394   -5.3742 C.ar    1  UNL11      -0.0496
      6 C           0.4329    2.8665   -4.6625 C.ar    1  UNL11      -0.0606
      7 C           0.4024    2.8224   -3.2651 C.ar    1  UNL11      -0.0525
      8 C           1.0899    1.8661   -2.5539 C.ar    1  UNL11       0.0196
      9 C           1.1136    1.7487   -1.0956 C.3     1  UNL11       0.1985
     10 N          -0.1713    1.5246   -0.4883 N.am    1  UNL11      -0.0155
     11 N          -0.9308    0.4971   -0.7253 N.2     1  UNL11      -0.0009
     12 C          -2.1362    0.2496   -0.1787 C.2     1  UNL11       0.1377
     13 C          -2.8337   -0.9451   -0.5639 C.ar    1  UNL11       0.0061
     14 C          -2.1652   -2.0876   -0.9444 C.ar    1  UNL11      -0.0524
     15 C          -2.8685   -3.2258   -1.3110 C.ar    1  UNL11      -0.0611
     16 C          -4.2370   -3.2340   -1.3014 C.ar    1  UNL11      -0.0617
     17 C          -4.9224   -2.1037   -0.9249 C.ar    1  UNL11      -0.0611
     18 C          -4.2267   -0.9880   -0.5655 C.ar    1  UNL11      -0.0524
     19 C          -2.6113    1.1660    0.7131 C.2     1  UNL11      -0.0084
     20 C          -1.8354    2.2799    0.9980 C.2     1  UNL11       0.1730
     21 C          -2.3568    3.2648    1.9629 C.3     1  UNL11       0.4270
     22 F          -1.4643    4.3228    2.1417 F       1  UNL11      -0.1655
     23 F          -2.6163    2.6750    3.1825 F       1  UNL11      -0.1655
     24 F          -3.5669    3.7270    1.4752 F       1  UNL11      -0.1655
     25 C          -0.6184    2.4429    0.3881 C.2     1  UNL11       0.4446
     26 O           0.0366    3.4780    0.6916 O.2     1  UNL11      -0.2116
     27 C           1.8149    0.9481   -3.3041 C.ar    1  UNL11      -0.0404
     28 H           3.6266    0.0259   -7.2785 H       1  UNL11       0.1453
     29 H           1.8268   -0.0718   -7.3609 H       1  UNL11       0.1453
     30 H           1.2006    1.9554   -6.4615 H       1  UNL11       0.0625
     31 H          -0.1255    3.6401   -5.1850 H       1  UNL11       0.0618
     32 H          -0.1703    3.5477   -2.6983 H       1  UNL11       0.0622
     33 H           1.5810    2.6974   -0.6990 H       1  UNL11       0.1103
     34 H           1.7783    0.9150   -0.7893 H       1  UNL11       0.1103
     35 H          -1.0874   -2.1408   -0.9716 H       1  UNL11       0.0624
     36 H          -2.3093   -4.1002   -1.6027 H       1  UNL11       0.0618
     37 H          -4.7827   -4.1461   -1.5954 H       1  UNL11       0.0618
     38 H          -6.0029   -2.1581   -0.9329 H       1  UNL11       0.0618
     39 H          -4.7423   -0.0995   -0.2696 H       1  UNL11       0.0624
     40 H          -3.5732    1.0292    1.1897 H       1  UNL11       0.0650
     41 H           2.3673    0.1822   -2.7765 H       1  UNL11       0.0630
@<TRIPOS>BOND
     1     1     2   am
     2     1    28    1
     3     1    29    1
     4     2     3    2
     5     2     4    1
     6     4     5   ar
     7     5     6   ar
     8     5    30    1
     9     6     7   ar
    10     6    31    1
    11     7     8   ar
    12     7    32    1
    13     8     9    1
    14     8    27   ar
    15     9    10    1
    16     9    33    1
    17     9    34    1
    18    10    11    1
    19    11    12    2
    20    12    13    1
    21    12    19    1
    22    13    14   ar
    23    14    15   ar
    24    14    35    1
    25    15    16   ar
    26    15    36    1
    27    16    17   ar
    28    16    37    1
    29    17    18   ar
    30    17    38    1
    31    18    13   ar
    32    18    39    1
    33    19    20    2
    34    19    40    1
    35    20    21    1
    36    20    25    1
    37    21    22    1
    38    21    23    1
    39    21    24    1
    40    25    26    2
    41    25    10   am
    42    27     4   ar
    43    27    41    1
@<TRIPOS>MOLECULE
*****
 41 43 0 0 0
SMALL
GASTEIGER

@<TRIPOS>ATOM
      1 N           0.0184    6.6986   -2.1464 N.am    1  UNL11      -0.3253
      2 C          -0.0896    5.9420   -3.3351 C.2     1  UNL11       0.2415
      3 O          -0.6850    6.4544   -4.3146 O.2     1  UNL11      -0.2704
      4 C           0.4724    4.5987   -3.4342 C.ar    1  UNL11       0.0369
      5 C           0.9232    4.1304   -4.6504 C.ar    1  UNL11      -0.0496
      6 C           1.4490    2.8581   -4.7139 C.ar    1  UNL11      -0.0606
      7 C           1.5212    2.0636   -3.5654 C.ar    1  UNL11      -0.0525
      8 C           1.0768    2.5124   -2.3432 C.ar    1  UNL11       0.0196
      9 C           1.1136    1.7487   -1.0956 C.3     1  UNL11       0.1985
     10 N          -0.1713    1.5246   -0.4883 N.am    1  UNL11      -0.0155
     11 N          -0.9308    0.4971   -0.7253 N.2     1  UNL11      -0.0009
     12 C          -2.1362    0.2496   -0.1787 C.2     1  UNL11       0.1377
     13 C          -2.8337   -0.9451   -0.5639 C.ar    1  UNL11       0.0061
     14 C          -2.6740   -1.5118   -1.8091 C.ar    1  UNL11      -0.0524
     15 C          -3.3626   -2.6667   -2.1505 C.ar    1  UNL11      -0.0611
     16 C          -4.2115   -3.2629   -1.2580 C.ar    1  UNL11      -0.0617
     17 C          -4.3845   -2.7126   -0.0105 C.ar    1  UNL11      -0.0611
     18 C          -3.7057   -1.5778    0.3202 C.ar    1  UNL11      -0.0524
     19 C          -2.6113    1.1660    0.7131 C.2     1  UNL11      -0.0084
     20 C          -1.8354    2.2799    0.9980 C.2     1  UNL11       0.1730
     21 C          -2.3568    3.2648    1.9629 C.3     1  UNL11       0.4270
     22 F          -1.4643    4.3228    2.1417 F       1  UNL11      -0.1655
     23 F          -2.6163    2.6750    3.1825 F       1  UNL11      -0.1655
     24 F          -3.5669    3.7270    1.4752 F       1  UNL11      -0.1655
     25 C          -0.6184    2.4429    0.3881 C.2     1  UNL11       0.4446
     26 O           0.0366    3.4780    0.6916 O.2     1  UNL11      -0.2116
     27 C           0.5531    3.7993   -2.3166 C.ar    1  UNL11      -0.0404
     28 H           0.4543    7.6344   -2.1854 H       1  UNL11       0.1453
     29 H          -0.3397    6.3028   -1.2621 H       1  UNL11       0.1453
     30 H           0.8576    4.7655   -5.5314 H       1  UNL11       0.0625
     31 H           1.8120    2.4636   -5.6604 H       1  UNL11       0.0618
     32 H           1.9342    1.0621   -3.6073 H       1  UNL11       0.0622
     33 H           1.7950    2.3086   -0.3898 H       1  UNL11       0.1103
     34 H           1.5799    0.7569   -1.2674 H       1  UNL11       0.1103
     35 H          -2.0186   -1.0868   -2.5542 H       1  UNL11       0.0624
     36 H          -3.2109   -3.0799   -3.1347 H       1  UNL11       0.0618
     37 H          -4.7523   -4.1806   -1.5434 H       1  UNL11       0.0618
     38 H          -5.0655   -3.2192    0.6605 H       1  UNL11       0.0618
     39 H          -3.8272   -1.1352    1.2858 H       1  UNL11       0.0624
     40 H          -3.5732    1.0292    1.1897 H       1  UNL11       0.0650
     41 H           0.1945    4.1839   -1.3713 H       1  UNL11       0.0630
@<TRIPOS>BOND
     1     1     2   am
     2     1    28    1
     3     1    29    1
     4     2     3    2
     5     2     4    1
     6     4     5   ar
     7     5     6   ar
     8     5    30    1
     9     6     7   ar
    10     6    31    1
    11     7     8   ar
    12     7    32    1
    13     8     9    1
    14     8    27   ar
    15     9    10    1
    16     9    33    1
    17     9    34    1
    18    10    11    1
    19    11    12    2
    20    12    13    1
    21    12    19    1
    22    13    14   ar
    23    14    15   ar
    24    14    35    1
    25    15    16   ar
    26    15    36    1
    27    16    17   ar
    28    16    37    1
    29    17    18   ar
    30    17    38    1
    31    18    13   ar
    32    18    39    1
    33    19    20    2
    34    19    40    1
    35    20    21    1
    36    20    25    1
    37    21    22    1
    38    21    23    1
    39    21    24    1
    40    25    26    2
    41    25    10   am
    42    27     4   ar
    43    27    41    1
@<TRIPOS>MOLECULE
*****
 41 43 0 0 0
SMALL
GASTEIGER

@<TRIPOS>ATOM
      1 N           2.6047   -3.9642    0.5567 N.am    1  UNL11      -0.3253
      2 C           1.9521   -3.0092   -0.2551 C.2     1  UNL11       0.2415
      3 O           0.8856   -3.3436   -0.8271 O.2     1  UNL11      -0.2704
      4 C           2.4939   -1.6655   -0.4322 C.ar    1  UNL11       0.0369
      5 C           3.8553   -1.4586   -0.3598 C.ar    1  UNL11      -0.0496
      6 C           4.3384   -0.1793   -0.5310 C.ar    1  UNL11      -0.0606
      7 C           3.4611    0.8825   -0.7727 C.ar    1  UNL11      -0.0525
      8 C           2.1000    0.6966   -0.8484 C.ar    1  UNL11       0.0196
      9 C           1.1136    1.7487   -1.0956 C.3     1  UNL11       0.1985
     10 N          -0.1713    1.5246   -0.4883 N.am    1  UNL11      -0.0155
     11 N          -0.9308    0.4971   -0.7253 N.2     1  UNL11      -0.0009
     12 C          -2.1362    0.2496   -0.1787 C.2     1  UNL11       0.1377
     13 C          -2.8337   -0.9451   -0.5639 C.ar    1  UNL11       0.0061
     14 C          -2.6740   -1.5118   -1.8091 C.ar    1  UNL11      -0.0524
     15 C          -3.3626   -2.6667   -2.1505 C.ar    1  UNL11      -0.0611
     16 C          -4.2115   -3.2629   -1.2580 C.ar    1  UNL11      -0.0617
     17 C          -4.3845   -2.7126   -0.0105 C.ar    1  UNL11      -0.0611
     18 C          -3.7057   -1.5778    0.3202 C.ar    1  UNL11      -0.0524
     19 C          -2.6113    1.1660    0.7131 C.2     1  UNL11      -0.0084
     20 C          -1.8354    2.2799    0.9980 C.2     1  UNL11       0.1730
     21 C          -2.3568    3.2648    1.9629 C.3     1  UNL11       0.4270
     22 F          -1.4643    4.3228    2.1417 F       1  UNL11      -0.1655
     23 F          -2.6163    2.6750    3.1825 F       1  UNL11      -0.1655
     24 F          -3.5669    3.7270    1.4752 F       1  UNL11      -0.1655
     25 C          -0.6184    2.4429    0.3881 C.2     1  UNL11       0.4446
     26 O           0.0366    3.4780    0.6916 O.2     1  UNL11      -0.2116
     27 C           1.6488   -0.6057   -0.6710 C.ar    1  UNL11      -0.0404
     28 H           2.0833   -4.4021    1.3337 H       1  UNL11       0.1453
     29 H           3.5891   -4.2066    0.3589 H       1  UNL11       0.1453
     30 H           4.5200   -2.2991   -0.1708 H       1  UNL11       0.0625
     31 H           5.4079    0.0124   -0.4790 H       1  UNL11       0.0618
     32 H           3.8336    1.8914   -0.9092 H       1  UNL11       0.0622
     33 H           1.0125    1.8449   -2.2165 H       1  UNL11       0.1103
     34 H           1.4928    2.7235   -0.7261 H       1  UNL11       0.1103
     35 H          -2.0186   -1.0868   -2.5542 H       1  UNL11       0.0624
     36 H          -3.2109   -3.0799   -3.1347 H       1  UNL11       0.0618
     37 H          -4.7523   -4.1806   -1.5434 H       1  UNL11       0.0618
     38 H          -5.0655   -3.2192    0.6605 H       1  UNL11       0.0618
     39 H          -3.8272   -1.1352    1.2858 H       1  UNL11       0.0624
     40 H          -3.5732    1.0292    1.1897 H       1  UNL11       0.0650
     41 H           0.5838   -0.7875   -0.7244 H       1  UNL11       0.0630
@<TRIPOS>BOND
     1     1     2   am
     2     1    28    1
     3     1    29    1
     4     2     3    2
     5     2     4    1
     6     4     5   ar
     7     5     6   ar
     8     5    30    1
     9     6     7   ar
    10     6    31    1
    11     7     8   ar
    12     7    32    1
    13     8     9    1
    14     8    27   ar
    15     9    10    1
    16     9    33    1
    17     9    34    1
    18    10    11    1
    19    11    12    2
    20    12    13    1
    21    12    19    1
    22    13    14   ar
    23    14    15   ar
    24    14    35    1
    25    15    16   ar
    26    15    36    1
    27    16    17   ar
    28    16    37    1
    29    17    18   ar
    30    17    38    1
    31    18    13   ar
    32    18    39    1
    33    19    20    2
    34    19    40    1
    35    20    21    1
    36    20    25    1
    37    21    22    1
    38    21    23    1
    39    21    24    1
    40    25    26    2
    41    25    10   am
    42    27     4   ar
    43    27    41    1
@<TRIPOS>MOLECULE
*****
 41 43 0 0 0
SMALL
GASTEIGER

@<TRIPOS>ATOM
      1 N           1.7666   -2.6865    1.4943 N.am    1  UNL11      -0.3253
      2 C           2.7561   -1.7650    1.9049 C.2     1  UNL11       0.2415
      3 O           3.3927   -2.0061    2.9600 O.2     1  UNL11      -0.2704
      4 C           3.0401   -0.5604    1.1313 C.ar    1  UNL11       0.0369
      5 C           4.3114   -0.0261    1.1336 C.ar    1  UNL11      -0.0496
      6 C           4.5503    1.1118    0.3938 C.ar    1  UNL11      -0.0606
      7 C           3.5209    1.7074   -0.3417 C.ar    1  UNL11      -0.0525
      8 C           2.2463    1.1898   -0.3569 C.ar    1  UNL11       0.0196
      9 C           1.1136    1.7487   -1.0956 C.3     1  UNL11       0.1985
     10 N          -0.1713    1.5246   -0.4883 N.am    1  UNL11      -0.0155
     11 N          -0.9308    0.4971   -0.7253 N.2     1  UNL11      -0.0009
     12 C          -2.1362    0.2496   -0.1787 C.2     1  UNL11       0.1377
     13 C          -2.8337   -0.9451   -0.5639 C.ar    1  UNL11       0.0061
     14 C          -2.1652   -2.0876   -0.9444 C.ar    1  UNL11      -0.0524
     15 C          -2.8685   -3.2258   -1.3110 C.ar    1  UNL11      -0.0611
     16 C          -4.2370   -3.2340   -1.3014 C.ar    1  UNL11      -0.0617
     17 C          -4.9224   -2.1037   -0.9249 C.ar    1  UNL11      -0.0611
     18 C          -4.2267   -0.9880   -0.5655 C.ar    1  UNL11      -0.0524
     19 C          -2.6113    1.1660    0.7131 C.2     1  UNL11      -0.0084
     20 C          -1.8354    2.2799    0.9980 C.2     1  UNL11       0.1730
     21 C          -2.3568    3.2648    1.9629 C.3     1  UNL11       0.4270
     22 F          -1.4643    4.3228    2.1417 F       1  UNL11      -0.1655
     23 F          -2.6163    2.6750    3.1825 F       1  UNL11      -0.1655
     24 F          -3.5669    3.7270    1.4752 F       1  UNL11      -0.1655
     25 C          -0.6184    2.4429    0.3881 C.2     1  UNL11       0.4446
     26 O           0.0366    3.4780    0.6916 O.2     1  UNL11      -0.2116
     27 C           2.0420    0.0425    0.4000 C.ar    1  UNL11      -0.0404
     28 H           2.0296   -3.6756    1.3541 H       1  UNL11       0.1453
     29 H           0.8002   -2.3549    1.3421 H       1  UNL11       0.1453
     30 H           5.0976   -0.5057    1.7130 H       1  UNL11       0.0625
     31 H           5.5439    1.5544    0.3778 H       1  UNL11       0.0618
     32 H           3.7013    2.6022   -0.9267 H       1  UNL11       0.0622
     33 H           1.1471    1.3015   -2.1323 H       1  UNL11       0.1103
     34 H           1.2392    2.8441   -1.2180 H       1  UNL11       0.1103
     35 H          -1.0874   -2.1408   -0.9716 H       1  UNL11       0.0624
     36 H          -2.3093   -4.1002   -1.6027 H       1  UNL11       0.0618
     37 H          -4.7827   -4.1461   -1.5954 H       1  UNL11       0.0618
     38 H          -6.0029   -2.1581   -0.9329 H       1  UNL11       0.0618
     39 H          -4.7423   -0.0995   -0.2696 H       1  UNL11       0.0624
     40 H          -3.5732    1.0292    1.1897 H       1  UNL11       0.0650
     41 H           1.0510   -0.3911    0.4104 H       1  UNL11       0.0630
@<TRIPOS>BOND
     1     1     2   am
     2     1    28    1
     3     1    29    1
     4     2     3    2
     5     2     4    1
     6     4     5   ar
     7     5     6   ar
     8     5    30    1
     9     6     7   ar
    10     6    31    1
    11     7     8   ar
    12     7    32    1
    13     8     9    1
    14     8    27   ar
    15     9    10    1
    16     9    33    1
    17     9    34    1
    18    10    11    1
    19    11    12    2
    20    12    13    1
    21    12    19    1
    22    13    14   ar
    23    14    15   ar
    24    14    35    1
    25    15    16   ar
    26    15    36    1
    27    16    17   ar
    28    16    37    1
    29    17    18   ar
    30    17    38    1
    31    18    13   ar
    32    18    39    1
    33    19    20    2
    34    19    40    1
    35    20    21    1
    36    20    25    1
    37    21    22    1
    38    21    23    1
    39    21    24    1
    40    25    26    2
    41    25    10   am
    42    27     4   ar
    43    27    41    1
@<TRIPOS>MOLECULE
*****
 41 43 0 0 0
SMALL
GASTEIGER

@<TRIPOS>ATOM
      1 N           4.3636    2.7849   -4.9904 N.am    1  UNL11      -0.3253
      2 C           3.2465    2.0841   -5.4985 C.2     1  UNL11       0.2415
      3 O           3.0558    2.0878   -6.7395 O.2     1  UNL11      -0.2704
      4 C           2.3308    1.3706   -4.6138 C.ar    1  UNL11       0.0369
      5 C           1.6750    0.2452   -5.0667 C.ar    1  UNL11      -0.0496
      6 C           0.8164   -0.4081   -4.2093 C.ar    1  UNL11      -0.0606
      7 C           0.6187    0.0652   -2.9084 C.ar    1  UNL11      -0.0525
      8 C           1.2634    1.1859   -2.4380 C.ar    1  UNL11       0.0196
      9 C           1.1136    1.7487   -1.0956 C.3     1  UNL11       0.1985
     10 N          -0.1713    1.5246   -0.4883 N.am    1  UNL11      -0.0155
     11 N          -0.9308    0.4971   -0.7253 N.2     1  UNL11      -0.0009
     12 C          -2.1362    0.2496   -0.1787 C.2     1  UNL11       0.1377
     13 C          -2.8337   -0.9451   -0.5639 C.ar    1  UNL11       0.0061
     14 C          -4.2094   -1.0092   -0.5876 C.ar    1  UNL11      -0.0524
     15 C          -4.8532   -2.1788   -0.9646 C.ar    1  UNL11      -0.0611
     16 C          -4.1345   -3.2881   -1.3191 C.ar    1  UNL11      -0.0617
     17 C          -2.7609   -3.2441   -1.3018 C.ar    1  UNL11      -0.0611
     18 C          -2.1330   -2.0927   -0.9307 C.ar    1  UNL11      -0.0524
     19 C          -2.6113    1.1660    0.7131 C.2     1  UNL11      -0.0084
     20 C          -1.8354    2.2799    0.9980 C.2     1  UNL11       0.1730
     21 C          -2.3568    3.2648    1.9629 C.3     1  UNL11       0.4270
     22 F          -1.4643    4.3228    2.1417 F       1  UNL11      -0.1655
     23 F          -2.6163    2.6750    3.1825 F       1  UNL11      -0.1655
     24 F          -3.5669    3.7270    1.4752 F       1  UNL11      -0.1655
     25 C          -0.6184    2.4429    0.3881 C.2     1  UNL11       0.4446
     26 O           0.0366    3.4780    0.6916 O.2     1  UNL11      -0.2116
     27 C           2.1211    1.8188   -3.3294 C.ar    1  UNL11      -0.0404
     28 H           5.3056    2.5508   -5.3438 H       1  UNL11       0.1453
     29 H           4.2180    3.5169   -4.2763 H       1  UNL11       0.1453
     30 H           1.8435   -0.1057   -6.0827 H       1  UNL11       0.0625
     31 H           0.2861   -1.2983   -4.5405 H       1  UNL11       0.0618
     32 H          -0.0545   -0.4438   -2.2278 H       1  UNL11       0.0622
     33 H           1.3265    2.8548   -1.1795 H       1  UNL11       0.1103
     34 H           1.8827    1.3279   -0.4160 H       1  UNL11       0.1103
     35 H          -4.8287   -0.1670   -0.3186 H       1  UNL11       0.0624
     36 H          -5.9313   -2.1895   -0.9704 H       1  UNL11       0.0618
     37 H          -4.6600   -4.2109   -1.6165 H       1  UNL11       0.0618
     38 H          -2.2362   -4.1454   -1.5900 H       1  UNL11       0.0618
     39 H          -1.0654   -2.0393   -0.9111 H       1  UNL11       0.0624
     40 H          -3.5732    1.0292    1.1897 H       1  UNL11       0.0650
     41 H           2.6444    2.7032   -2.9920 H       1  UNL11       0.0630
@<TRIPOS>BOND
     1     1     2   am
     2     1    28    1
     3     1    29    1
     4     2     3    2
     5     2     4    1
     6     4     5   ar
     7     5     6   ar
     8     5    30    1
     9     6     7   ar
    10     6    31    1
    11     7     8   ar
    12     7    32    1
    13     8     9    1
    14     8    27   ar
    15     9    10    1
    16     9    33    1
    17     9    34    1
    18    10    11    1
    19    11    12    2
    20    12    13    1
    21    12    19    1
    22    13    14   ar
    23    14    15   ar
    24    14    35    1
    25    15    16   ar
    26    15    36    1
    27    16    17   ar
    28    16    37    1
    29    17    18   ar
    30    17    38    1
    31    18    13   ar
    32    18    39    1
    33    19    20    2
    34    19    40    1
    35    20    21    1
    36    20    25    1
    37    21    22    1
    38    21    23    1
    39    21    24    1
    40    25    26    2
    41    25    10   am
    42    27     4   ar
    43    27    41    1
