@<TRIPOS>MOLECULE
*****
 37 39 0 0 0
SMALL
GASTEIGER

@<TRIPOS>ATOM
      1 O          -0.1385    0.6665   -1.5295 O.2     1  UNL11      -0.2754
      2 C          -0.2340   -0.4035   -0.8823 C.2     1  UNL11       0.2193
      3 C           0.8792   -1.3689   -0.9523 C.3     1  UNL11       0.0725
      4 C           1.8971   -1.1513    0.1033 C.2     1  UNL11       0.1237
      5 N           3.1719   -0.8779   -0.2307 N.2     1  UNL11      -0.0071
      6 N           4.1129   -0.6746    0.6935 N.am    1  UNL11      -0.0356
      7 C           3.8703   -0.7251    2.0143 C.2     1  UNL11       0.4383
      8 O           4.7695   -0.5310    2.8773 O.2     1  UNL11      -0.2116
      9 C           2.5823   -1.0012    2.4214 C.ar    1  UNL11       0.1004
     10 C           2.2731   -1.0662    3.7659 C.ar    1  UNL11      -0.0441
     11 C           0.9739   -1.3450    4.1467 C.ar    1  UNL11      -0.0608
     12 C           0.0250   -1.5499    3.1624 C.ar    1  UNL11      -0.0611
     13 C           0.3245   -1.4871    1.8145 C.ar    1  UNL11      -0.0518
     14 C           1.6023   -1.2130    1.4422 C.ar    1  UNL11       0.0194
     15 N          -1.3855   -0.6754   -0.1034 N.am    1  UNL11      -0.3109
     16 C          -1.4685   -1.8897    0.6362 C.3     1  UNL11       0.0369
     17 C          -0.3120   -2.7769    0.5175 C.ar    1  UNL11      -0.0289
     18 C           0.3691   -3.0826    1.6887 C.ar    1  UNL11      -0.0570
     19 C           1.4699   -3.9018    1.7192 C.ar    1  UNL11      -0.0601
     20 C           1.9336   -4.4506    0.5650 C.ar    1  UNL11      -0.0434
     21 C           1.2679   -4.1588   -0.6203 C.ar    1  UNL11       0.0413
     22 CL          1.8672   -4.8673   -2.1121 Cl      1  UNL11      -0.0835
     23 C           0.1621   -3.3345   -0.6426 C.ar    1  UNL11      -0.0387
     24 H           0.4348   -2.3909   -0.8688 H       1  UNL11       0.0424
     25 H           1.3538   -1.3641   -1.9767 H       1  UNL11       0.0424
     26 H           5.0893   -0.4654    0.3957 H       1  UNL11       0.4829
     27 H           3.0024   -0.9079    4.5464 H       1  UNL11       0.0627
     28 H           0.7241   -1.3974    5.2112 H       1  UNL11       0.0618
     29 H          -1.0031   -1.7704    3.4783 H       1  UNL11       0.0618
     30 H          -0.4409   -1.6528    1.0853 H       1  UNL11       0.0624
     31 H          -2.1817    0.0120   -0.0656 H       1  UNL11       0.1490
     32 H          -2.3672   -2.4713    0.3003 H       1  UNL11       0.0512
     33 H          -1.6461   -1.6198    1.7173 H       1  UNL11       0.0512
     34 H           0.0412   -2.6721    2.6322 H       1  UNL11       0.0621
     35 H           1.9679   -4.1089    2.6715 H       1  UNL11       0.0618
     36 H           2.8021   -5.0953    0.5965 H       1  UNL11       0.0632
     37 H          -0.3493   -3.1105   -1.5547 H       1  UNL11       0.0635
@<TRIPOS>BOND
     1     1     2    2
     2     2     3    1
     3     2    15   am
     4     3     4    1
     5     3    24    1
     6     3    25    1
     7     4     5    2
     8     5     6    1
     9     6     7   am
    10     6    26    1
    11     7     8    2
    12     7     9    1
    13     9    10   ar
    14    10    11   ar
    15    10    27    1
    16    11    12   ar
    17    11    28    1
    18    12    13   ar
    19    12    29    1
    20    13    14   ar
    21    13    30    1
    22    14     4    1
    23    14     9   ar
    24    15    16    1
    25    15    31    1
    26    16    17    1
    27    16    32    1
    28    16    33    1
    29    17    18   ar
    30    18    19   ar
    31    18    34    1
    32    19    20   ar
    33    19    35    1
    34    20    21   ar
    35    20    36    1
    36    21    22    1
    37    21    23   ar
    38    23    17   ar
    39    23    37    1
@<TRIPOS>MOLECULE
*****
 37 39 0 0 0
SMALL
GASTEIGER

@<TRIPOS>ATOM
      1 O          -1.3961   -0.8429   -0.7106 O.2     1  UNL11      -0.2754
      2 C          -0.2340   -0.4035   -0.8823 C.2     1  UNL11       0.2193
      3 C           0.8792   -1.3689   -0.9523 C.3     1  UNL11       0.0725
      4 C           1.8971   -1.1513    0.1033 C.2     1  UNL11       0.1237
      5 N           1.5559   -1.2398    1.4022 N.2     1  UNL11      -0.0071
      6 N           2.4469   -1.0519    2.3778 N.am    1  UNL11      -0.0356
      7 C           3.7392   -0.7631    2.1486 C.2     1  UNL11       0.4383
      8 O           4.5710   -0.5878    3.0805 O.2     1  UNL11      -0.2116
      9 C           4.1519   -0.6587    0.8372 C.ar    1  UNL11       0.1004
     10 C           5.4681   -0.3637    0.5402 C.ar    1  UNL11      -0.0441
     11 C           5.8553   -0.2646   -0.7830 C.ar    1  UNL11      -0.0608
     12 C           4.9057   -0.4655   -1.7675 C.ar    1  UNL11      -0.0611
     13 C           3.5863   -0.7610   -1.4805 C.ar    1  UNL11      -0.0518
     14 C           3.2077   -0.8579   -0.1790 C.ar    1  UNL11       0.0194
     15 N           0.0003    0.9881   -1.0056 N.am    1  UNL11      -0.3109
     16 C           1.3255    1.4663   -1.2149 C.3     1  UNL11       0.0369
     17 C           2.2903    1.1173   -0.1728 C.ar    1  UNL11      -0.0289
     18 C           1.8177    0.3665    0.8960 C.ar    1  UNL11      -0.0570
     19 C           2.6156   -0.0286    1.9406 C.ar    1  UNL11      -0.0601
     20 C           3.9303    0.3177    1.9527 C.ar    1  UNL11      -0.0434
     21 C           4.4261    1.0693    0.8932 C.ar    1  UNL11       0.0413
     22 CL          6.1248    1.5175    0.9088 Cl      1  UNL11      -0.0835
     23 C           3.6177    1.4625   -0.1530 C.ar    1  UNL11      -0.0387
     24 H           0.4348   -2.3909   -0.8688 H       1  UNL11       0.0424
     25 H           1.3538   -1.3641   -1.9767 H       1  UNL11       0.0424
     26 H           2.1446   -1.1286    3.3720 H       1  UNL11       0.4829
     27 H           6.2215   -0.2049    1.2973 H       1  UNL11       0.0627
     28 H           6.8974   -0.0311   -1.0233 H       1  UNL11       0.0618
     29 H           5.2263   -0.3840   -2.8144 H       1  UNL11       0.0618
     30 H           2.8835   -0.9086   -2.2737 H       1  UNL11       0.0624
     31 H          -0.7961    1.6734   -0.9440 H       1  UNL11       0.1490
     32 H           1.3114    2.5855   -1.2909 H       1  UNL11       0.0512
     33 H           1.6736    1.0805   -2.2164 H       1  UNL11       0.0512
     34 H           0.7812    0.0658    0.9341 H       1  UNL11       0.0621
     35 H           2.1898   -0.6199    2.7572 H       1  UNL11       0.0618
     36 H           4.5534    0.0030    2.7796 H       1  UNL11       0.0632
     37 H           3.9997    2.0407   -0.9675 H       1  UNL11       0.0635
@<TRIPOS>BOND
     1     1     2    2
     2     2     3    1
     3     2    15   am
     4     3     4    1
     5     3    24    1
     6     3    25    1
     7     4     5    2
     8     5     6    1
     9     6     7   am
    10     6    26    1
    11     7     8    2
    12     7     9    1
    13     9    10   ar
    14    10    11   ar
    15    10    27    1
    16    11    12   ar
    17    11    28    1
    18    12    13   ar
    19    12    29    1
    20    13    14   ar
    21    13    30    1
    22    14     4    1
    23    14     9   ar
    24    15    16    1
    25    15    31    1
    26    16    17    1
    27    16    32    1
    28    16    33    1
    29    17    18   ar
    30    18    19   ar
    31    18    34    1
    32    19    20   ar
    33    19    35    1
    34    20    21   ar
    35    20    36    1
    36    21    22    1
    37    21    23   ar
    38    23    17   ar
    39    23    37    1
@<TRIPOS>MOLECULE
*****
 37 39 0 0 0
SMALL
GASTEIGER

@<TRIPOS>ATOM
      1 O          -1.3961   -0.8429   -0.7106 O.2     1  UNL11      -0.2754
      2 C          -0.2340   -0.4035   -0.8823 C.2     1  UNL11       0.2193
      3 C           0.8792   -1.3689   -0.9523 C.3     1  UNL11       0.0725
      4 C           1.8971   -1.1513    0.1033 C.2     1  UNL11       0.1237
      5 N           1.5559   -1.2398    1.4022 N.2     1  UNL11      -0.0071
      6 N           2.4469   -1.0519    2.3778 N.am    1  UNL11      -0.0356
      7 C           3.7392   -0.7631    2.1486 C.2     1  UNL11       0.4383
      8 O           4.5710   -0.5878    3.0805 O.2     1  UNL11      -0.2116
      9 C           4.1519   -0.6587    0.8372 C.ar    1  UNL11       0.1004
     10 C           5.4681   -0.3637    0.5402 C.ar    1  UNL11      -0.0441
     11 C           5.8553   -0.2646   -0.7830 C.ar    1  UNL11      -0.0608
     12 C           4.9057   -0.4655   -1.7675 C.ar    1  UNL11      -0.0611
     13 C           3.5863   -0.7610   -1.4805 C.ar    1  UNL11      -0.0518
     14 C           3.2077   -0.8579   -0.1790 C.ar    1  UNL11       0.0194
     15 N           0.0003    0.9881   -1.0056 N.am    1  UNL11      -0.3109
     16 C           1.3255    1.4663   -1.2149 C.3     1  UNL11       0.0369
     17 C           2.2148    0.5554   -1.9346 C.ar    1  UNL11      -0.0289
     18 C           1.6795   -0.6630   -2.3323 C.ar    1  UNL11      -0.0570
     19 C           2.4035   -1.6089   -3.0142 C.ar    1  UNL11      -0.0601
     20 C           3.7043   -1.3660   -3.3260 C.ar    1  UNL11      -0.0434
     21 C           4.2622   -0.1529   -2.9382 C.ar    1  UNL11       0.0413
     22 CL          5.9433    0.1610   -3.3405 Cl      1  UNL11      -0.0835
     23 C           3.5277    0.7927   -2.2531 C.ar    1  UNL11      -0.0387
     24 H           0.4348   -2.3909   -0.8688 H       1  UNL11       0.0424
     25 H           1.3538   -1.3641   -1.9767 H       1  UNL11       0.0424
     26 H           2.1446   -1.1286    3.3720 H       1  UNL11       0.4829
     27 H           6.2215   -0.2049    1.2973 H       1  UNL11       0.0627
     28 H           6.8974   -0.0311   -1.0233 H       1  UNL11       0.0618
     29 H           5.2263   -0.3840   -2.8144 H       1  UNL11       0.0618
     30 H           2.8835   -0.9086   -2.2737 H       1  UNL11       0.0624
     31 H          -0.7961    1.6734   -0.9440 H       1  UNL11       0.1490
     32 H           1.8055    1.6830   -0.2243 H       1  UNL11       0.0512
     33 H           1.2509    2.4523   -1.7584 H       1  UNL11       0.0512
     34 H           0.6509   -0.9047   -2.1089 H       1  UNL11       0.0621
     35 H           1.9303   -2.5524   -3.3031 H       1  UNL11       0.0618
     36 H           4.2692   -2.1164   -3.8635 H       1  UNL11       0.0632
     37 H           3.9575    1.7254   -1.9551 H       1  UNL11       0.0635
@<TRIPOS>BOND
     1     1     2    2
     2     2     3    1
     3     2    15   am
     4     3     4    1
     5     3    24    1
     6     3    25    1
     7     4     5    2
     8     5     6    1
     9     6     7   am
    10     6    26    1
    11     7     8    2
    12     7     9    1
    13     9    10   ar
    14    10    11   ar
    15    10    27    1
    16    11    12   ar
    17    11    28    1
    18    12    13   ar
    19    12    29    1
    20    13    14   ar
    21    13    30    1
    22    14     4    1
    23    14     9   ar
    24    15    16    1
    25    15    31    1
    26    16    17    1
    27    16    32    1
    28    16    33    1
    29    17    18   ar
    30    18    19   ar
    31    18    34    1
    32    19    20   ar
    33    19    35    1
    34    20    21   ar
    35    20    36    1
    36    21    22    1
    37    21    23   ar
    38    23    17   ar
    39    23    37    1
@<TRIPOS>MOLECULE
*****
 37 39 0 0 0
SMALL
GASTEIGER

@<TRIPOS>ATOM
      1 O          -0.1385    0.6665   -1.5295 O.2     1  UNL11      -0.2754
      2 C          -0.2340   -0.4035   -0.8823 C.2     1  UNL11       0.2193
      3 C           0.8792   -1.3689   -0.9523 C.3     1  UNL11       0.0725
      4 C           1.8971   -1.1513    0.1033 C.2     1  UNL11       0.1237
      5 N           2.1137    0.0841    0.5914 N.2     1  UNL11      -0.0071
      6 N           3.0204    0.3153    1.5430 N.am    1  UNL11      -0.0356
      7 C           3.7812   -0.6507    2.0849 C.2     1  UNL11       0.4383
      8 O           4.6349   -0.4181    2.9839 O.2     1  UNL11      -0.2116
      9 C           3.6068   -1.9395    1.6268 C.ar    1  UNL11       0.1004
     10 C           4.3605   -2.9737    2.1463 C.ar    1  UNL11      -0.0441
     11 C           4.1657   -4.2563    1.6691 C.ar    1  UNL11      -0.0608
     12 C           3.2178   -4.4590    0.6833 C.ar    1  UNL11      -0.0611
     13 C           2.4588   -3.4307    0.1570 C.ar    1  UNL11      -0.0518
     14 C           2.6519   -2.1705    0.6275 C.ar    1  UNL11       0.0194
     15 N          -1.3855   -0.6754   -0.1034 N.am    1  UNL11      -0.3109
     16 C          -1.4685   -1.8897    0.6362 C.3     1  UNL11       0.0369
     17 C          -0.3120   -2.7769    0.5175 C.ar    1  UNL11      -0.0289
     18 C           0.3985   -2.7279   -0.6750 C.ar    1  UNL11      -0.0570
     19 C           1.5026   -3.5064   -0.9178 C.ar    1  UNL11      -0.0601
     20 C           1.9398   -4.3716    0.0354 C.ar    1  UNL11      -0.0434
     21 C           1.2443   -4.4381    1.2375 C.ar    1  UNL11       0.0413
     22 CL          1.8088   -5.5564    2.4693 Cl      1  UNL11      -0.0835
     23 C           0.1356   -3.6523    1.4739 C.ar    1  UNL11      -0.0387
     24 H           0.4348   -2.3909   -0.8688 H       1  UNL11       0.0424
     25 H           1.3538   -1.3641   -1.9767 H       1  UNL11       0.0424
     26 H           3.1595    1.2859    1.8955 H       1  UNL11       0.4829
     27 H           5.1037   -2.8318    2.9167 H       1  UNL11       0.0627
     28 H           4.7605   -5.0792    2.0778 H       1  UNL11       0.0618
     29 H           3.0729   -5.4824    0.3131 H       1  UNL11       0.0618
     30 H           1.7359   -3.6319   -0.6058 H       1  UNL11       0.0624
     31 H          -2.1817    0.0120   -0.0656 H       1  UNL11       0.1490
     32 H          -2.3672   -2.4713    0.3003 H       1  UNL11       0.0512
     33 H          -1.6461   -1.6198    1.7173 H       1  UNL11       0.0512
     34 H           0.0922   -2.0575   -1.4643 H       1  UNL11       0.0621
     35 H           2.0247   -3.4264   -1.8764 H       1  UNL11       0.0618
     36 H           2.8107   -4.9824   -0.1630 H       1  UNL11       0.0632
     37 H          -0.3989   -3.7041    2.3987 H       1  UNL11       0.0635
@<TRIPOS>BOND
     1     1     2    2
     2     2     3    1
     3     2    15   am
     4     3     4    1
     5     3    24    1
     6     3    25    1
     7     4     5    2
     8     5     6    1
     9     6     7   am
    10     6    26    1
    11     7     8    2
    12     7     9    1
    13     9    10   ar
    14    10    11   ar
    15    10    27    1
    16    11    12   ar
    17    11    28    1
    18    12    13   ar
    19    12    29    1
    20    13    14   ar
    21    13    30    1
    22    14     4    1
    23    14     9   ar
    24    15    16    1
    25    15    31    1
    26    16    17    1
    27    16    32    1
    28    16    33    1
    29    17    18   ar
    30    18    19   ar
    31    18    34    1
    32    19    20   ar
    33    19    35    1
    34    20    21   ar
    35    20    36    1
    36    21    22    1
    37    21    23   ar
    38    23    17   ar
    39    23    37    1
@<TRIPOS>MOLECULE
*****
 37 39 0 0 0
SMALL
GASTEIGER

@<TRIPOS>ATOM
      1 O          -1.3961   -0.8429   -0.7106 O.2     1  UNL11      -0.2754
      2 C          -0.2340   -0.4035   -0.8823 C.2     1  UNL11       0.2193
      3 C           0.8792   -1.3689   -0.9523 C.3     1  UNL11       0.0725
      4 C           1.8971   -1.1513    0.1033 C.2     1  UNL11       0.1237
      5 N           2.9454   -0.3382   -0.1235 N.2     1  UNL11      -0.0071
      6 N           3.8786   -0.1183    0.8048 N.am    1  UNL11      -0.0356
      7 C           3.8503   -0.6816    2.0246 C.2     1  UNL11       0.4383
      8 O           4.7394   -0.4651    2.8928 O.2     1  UNL11      -0.2116
      9 C           2.8006   -1.5257    2.3189 C.ar    1  UNL11       0.1004
     10 C           2.7186   -2.1336    3.5563 C.ar    1  UNL11      -0.0441
     11 C           1.6558   -2.9755    3.8253 C.ar    1  UNL11      -0.0608
     12 C           0.7076   -3.1801    2.8402 C.ar    1  UNL11      -0.0611
     13 C           0.7809   -2.5765    1.5989 C.ar    1  UNL11      -0.0518
     14 C           1.8265   -1.7492    1.3365 C.ar    1  UNL11       0.0194
     15 N           0.0003    0.9881   -1.0056 N.am    1  UNL11      -0.3109
     16 C           1.3255    1.4663   -1.2149 C.3     1  UNL11       0.0369
     17 C           2.2903    1.1173   -0.1728 C.ar    1  UNL11      -0.0289
     18 C           1.8177    0.3665    0.8960 C.ar    1  UNL11      -0.0570
     19 C           2.6156   -0.0286    1.9406 C.ar    1  UNL11      -0.0601
     20 C           3.9303    0.3177    1.9527 C.ar    1  UNL11      -0.0434
     21 C           4.4261    1.0693    0.8932 C.ar    1  UNL11       0.0413
     22 CL          6.1248    1.5175    0.9088 Cl      1  UNL11      -0.0835
     23 C           3.6177    1.4625   -0.1530 C.ar    1  UNL11      -0.0387
     24 H           0.4348   -2.3909   -0.8688 H       1  UNL11       0.0424
     25 H           1.3538   -1.3641   -1.9767 H       1  UNL11       0.0424
     26 H           4.6758    0.5179    0.5918 H       1  UNL11       0.4829
     27 H           3.4504   -1.9834    4.3361 H       1  UNL11       0.0627
     28 H           1.5864   -3.4594    4.8047 H       1  UNL11       0.0618
     29 H          -0.1315   -3.8510    3.0667 H       1  UNL11       0.0618
     30 H           0.0251   -2.7630    0.8649 H       1  UNL11       0.0624
     31 H          -0.7961    1.6734   -0.9440 H       1  UNL11       0.1490
     32 H           1.3114    2.5855   -1.2909 H       1  UNL11       0.0512
     33 H           1.6736    1.0805   -2.2164 H       1  UNL11       0.0512
     34 H           0.7812    0.0658    0.9341 H       1  UNL11       0.0621
     35 H           2.1898   -0.6199    2.7572 H       1  UNL11       0.0618
     36 H           4.5534    0.0030    2.7796 H       1  UNL11       0.0632
     37 H           3.9997    2.0407   -0.9675 H       1  UNL11       0.0635
@<TRIPOS>BOND
     1     1     2    2
     2     2     3    1
     3     2    15   am
     4     3     4    1
     5     3    24    1
     6     3    25    1
     7     4     5    2
     8     5     6    1
     9     6     7   am
    10     6    26    1
    11     7     8    2
    12     7     9    1
    13     9    10   ar
    14    10    11   ar
    15    10    27    1
    16    11    12   ar
    17    11    28    1
    18    12    13   ar
    19    12    29    1
    20    13    14   ar
    21    13    30    1
    22    14     4    1
    23    14     9   ar
    24    15    16    1
    25    15    31    1
    26    16    17    1
    27    16    32    1
    28    16    33    1
    29    17    18   ar
    30    18    19   ar
    31    18    34    1
    32    19    20   ar
    33    19    35    1
    34    20    21   ar
    35    20    36    1
    36    21    22    1
    37    21    23   ar
    38    23    17   ar
    39    23    37    1
@<TRIPOS>MOLECULE
*****
 37 39 0 0 0
SMALL
GASTEIGER

@<TRIPOS>ATOM
      1 O          -1.3961   -0.8429   -0.7106 O.2     1  UNL11      -0.2754
      2 C          -0.2340   -0.4035   -0.8823 C.2     1  UNL11       0.2193
      3 C           0.8792   -1.3689   -0.9523 C.3     1  UNL11       0.0725
      4 C           1.8971   -1.1513    0.1033 C.2     1  UNL11       0.1237
      5 N           2.9853   -1.9406    0.1684 N.2     1  UNL11      -0.0071
      6 N           3.9219   -1.7715    1.1038 N.am    1  UNL11      -0.0356
      7 C           3.8579   -0.8140    2.0446 C.2     1  UNL11       0.4383
      8 O           4.7505   -0.6653    2.9234 O.2     1  UNL11      -0.2116
      9 C           2.7664    0.0283    2.0316 C.ar    1  UNL11       0.1004
     10 C           2.6462    1.0309    2.9738 C.ar    1  UNL11      -0.0441
     11 C           1.5417    1.8613    2.9383 C.ar    1  UNL11      -0.0608
     12 C           0.5914    1.6572    1.9551 C.ar    1  UNL11      -0.0611
     13 C           0.7025    0.6566    1.0080 C.ar    1  UNL11      -0.0518
     14 C           1.7891   -0.1586    1.0447 C.ar    1  UNL11       0.0194
     15 N           0.0003    0.9881   -1.0056 N.am    1  UNL11      -0.3109
     16 C           1.3255    1.4663   -1.2149 C.3     1  UNL11       0.0369
     17 C           1.8352    2.3723   -0.1863 C.ar    1  UNL11      -0.0289
     18 C           2.2013    3.6477   -0.5969 C.ar    1  UNL11      -0.0570
     19 C           2.6943    4.5958    0.2645 C.ar    1  UNL11      -0.0601
     20 C           2.8400    4.2975    1.5829 C.ar    1  UNL11      -0.0434
     21 C           2.4800    3.0267    2.0174 C.ar    1  UNL11       0.0413
     22 CL          2.6687    2.6408    3.7209 Cl      1  UNL11      -0.0835
     23 C           1.9852    2.0794    1.1453 C.ar    1  UNL11      -0.0387
     24 H           0.4348   -2.3909   -0.8688 H       1  UNL11       0.0424
     25 H           1.3538   -1.3641   -1.9767 H       1  UNL11       0.0424
     26 H           4.7504   -2.4031    1.1219 H       1  UNL11       0.4829
     27 H           3.3799    1.2036    3.7471 H       1  UNL11       0.0627
     28 H           1.4422    2.6574    3.6829 H       1  UNL11       0.0618
     29 H          -0.2810    2.3236    1.9380 H       1  UNL11       0.0618
     30 H          -0.0569    0.5333    0.2644 H       1  UNL11       0.0624
     31 H          -0.7961    1.6734   -0.9440 H       1  UNL11       0.1490
     32 H           1.3751    2.0145   -2.1924 H       1  UNL11       0.0512
     33 H           2.0008    0.5680   -1.3156 H       1  UNL11       0.0512
     34 H           2.1052    3.9346   -1.6336 H       1  UNL11       0.0621
     35 H           2.9669    5.5858   -0.1141 H       1  UNL11       0.0618
     36 H           3.2295    5.0498    2.2563 H       1  UNL11       0.0632
     37 H           1.7087    1.1022    1.4802 H       1  UNL11       0.0635
@<TRIPOS>BOND
     1     1     2    2
     2     2     3    1
     3     2    15   am
     4     3     4    1
     5     3    24    1
     6     3    25    1
     7     4     5    2
     8     5     6    1
     9     6     7   am
    10     6    26    1
    11     7     8    2
    12     7     9    1
    13     9    10   ar
    14    10    11   ar
    15    10    27    1
    16    11    12   ar
    17    11    28    1
    18    12    13   ar
    19    12    29    1
    20    13    14   ar
    21    13    30    1
    22    14     4    1
    23    14     9   ar
    24    15    16    1
    25    15    31    1
    26    16    17    1
    27    16    32    1
    28    16    33    1
    29    17    18   ar
    30    18    19   ar
    31    18    34    1
    32    19    20   ar
    33    19    35    1
    34    20    21   ar
    35    20    36    1
    36    21    22    1
    37    21    23   ar
    38    23    17   ar
    39    23    37    1
@<TRIPOS>MOLECULE
*****
 37 39 0 0 0
SMALL
GASTEIGER

@<TRIPOS>ATOM
      1 O          -0.0039    0.7418   -0.4258 O.2     1  UNL11      -0.2754
      2 C          -0.2340   -0.4035   -0.8823 C.2     1  UNL11       0.2193
      3 C           0.8792   -1.3689   -0.9523 C.3     1  UNL11       0.0725
      4 C           1.8971   -1.1513    0.1033 C.2     1  UNL11       0.1237
      5 N           2.9454   -0.3382   -0.1235 N.2     1  UNL11      -0.0071
      6 N           3.8786   -0.1183    0.8048 N.am    1  UNL11      -0.0356
      7 C           3.8503   -0.6816    2.0246 C.2     1  UNL11       0.4383
      8 O           4.7394   -0.4651    2.8928 O.2     1  UNL11      -0.2116
      9 C           2.8006   -1.5257    2.3189 C.ar    1  UNL11       0.1004
     10 C           2.7186   -2.1336    3.5563 C.ar    1  UNL11      -0.0441
     11 C           1.6558   -2.9755    3.8253 C.ar    1  UNL11      -0.0608
     12 C           0.7076   -3.1801    2.8402 C.ar    1  UNL11      -0.0611
     13 C           0.7809   -2.5765    1.5989 C.ar    1  UNL11      -0.0518
     14 C           1.8265   -1.7492    1.3365 C.ar    1  UNL11       0.0194
     15 N          -1.5338   -0.7582   -1.3197 N.am    1  UNL11      -0.3109
     16 C          -2.5907    0.1932   -1.2407 C.3     1  UNL11       0.0369
     17 C          -3.2206    0.5384   -2.5146 C.ar    1  UNL11      -0.0289
     18 C          -2.6805    1.6106   -3.2132 C.ar    1  UNL11      -0.0570
     19 C          -3.1748    2.0397   -4.4196 C.ar    1  UNL11      -0.0601
     20 C          -4.2396    1.4035   -4.9762 C.ar    1  UNL11      -0.0434
     21 C          -4.7972    0.3272   -4.2950 C.ar    1  UNL11       0.0413
     22 CL         -6.1735   -0.4948   -5.0138 Cl      1  UNL11      -0.0835
     23 C          -4.2945   -0.0980   -3.0829 C.ar    1  UNL11      -0.0387
     24 H           0.4348   -2.3909   -0.8688 H       1  UNL11       0.0424
     25 H           1.3538   -1.3641   -1.9767 H       1  UNL11       0.0424
     26 H           4.6758    0.5179    0.5918 H       1  UNL11       0.4829
     27 H           3.4504   -1.9834    4.3361 H       1  UNL11       0.0627
     28 H           1.5864   -3.4594    4.8047 H       1  UNL11       0.0618
     29 H          -0.1315   -3.8510    3.0667 H       1  UNL11       0.0618
     30 H           0.0251   -2.7630    0.8649 H       1  UNL11       0.0624
     31 H          -1.7268   -1.7192   -1.7029 H       1  UNL11       0.1490
     32 H          -2.2029    1.1468   -0.7946 H       1  UNL11       0.0512
     33 H          -3.3596   -0.2094   -0.5197 H       1  UNL11       0.0512
     34 H          -1.8342    2.1497   -2.8141 H       1  UNL11       0.0621
     35 H          -2.7095    2.8907   -4.9266 H       1  UNL11       0.0618
     36 H          -4.6242    1.7474   -5.9274 H       1  UNL11       0.0632
     37 H          -4.7240   -0.9258   -2.5596 H       1  UNL11       0.0635
@<TRIPOS>BOND
     1     1     2    2
     2     2     3    1
     3     2    15   am
     4     3     4    1
     5     3    24    1
     6     3    25    1
     7     4     5    2
     8     5     6    1
     9     6     7   am
    10     6    26    1
    11     7     8    2
    12     7     9    1
    13     9    10   ar
    14    10    11   ar
    15    10    27    1
    16    11    12   ar
    17    11    28    1
    18    12    13   ar
    19    12    29    1
    20    13    14   ar
    21    13    30    1
    22    14     4    1
    23    14     9   ar
    24    15    16    1
    25    15    31    1
    26    16    17    1
    27    16    32    1
    28    16    33    1
    29    17    18   ar
    30    18    19   ar
    31    18    34    1
    32    19    20   ar
    33    19    35    1
    34    20    21   ar
    35    20    36    1
    36    21    22    1
    37    21    23   ar
    38    23    17   ar
    39    23    37    1
@<TRIPOS>MOLECULE
*****
 37 39 0 0 0
SMALL
GASTEIGER

@<TRIPOS>ATOM
      1 O          -0.9166   -0.3539    0.1686 O.2     1  UNL11      -0.2754
      2 C          -0.2340   -0.4035   -0.8823 C.2     1  UNL11       0.2193
      3 C           0.8792   -1.3689   -0.9523 C.3     1  UNL11       0.0725
      4 C           1.8971   -1.1513    0.1033 C.2     1  UNL11       0.1237
      5 N           2.6011   -2.1899    0.5902 N.2     1  UNL11      -0.0071
      6 N           3.5260   -2.0296    1.5388 N.am    1  UNL11      -0.0356
      7 C           3.8272   -0.8365    2.0789 C.2     1  UNL11       0.4383
      8 O           4.7039   -0.6993    2.9753 O.2     1  UNL11      -0.2116
      9 C           3.1400    0.2680    1.6219 C.ar    1  UNL11       0.1004
     10 C           3.4064    1.5203    2.1398 C.ar    1  UNL11      -0.0441
     11 C           2.7029    2.6109    1.6641 C.ar    1  UNL11      -0.0608
     12 C           1.7522    2.4078    0.6811 C.ar    1  UNL11      -0.0611
     13 C           1.4782    1.1586    0.1565 C.ar    1  UNL11      -0.0518
     14 C           2.1710    0.0878    0.6256 C.ar    1  UNL11       0.0194
     15 N          -0.5279    0.4492   -1.9746 N.am    1  UNL11      -0.3109
     16 C          -1.6086    1.3720   -1.8805 C.3     1  UNL11       0.0369
     17 C          -2.9221    0.7772   -1.6362 C.ar    1  UNL11      -0.0289
     18 C          -2.9749   -0.6062   -1.5234 C.ar    1  UNL11      -0.0570
     19 C          -4.1417   -1.2918   -1.2946 C.ar    1  UNL11      -0.0601
     20 C          -5.3108   -0.6093   -1.1691 C.ar    1  UNL11      -0.0434
     21 C          -5.2827    0.7766   -1.2783 C.ar    1  UNL11       0.0413
     22 CL         -6.7933    1.6589   -1.1167 Cl      1  UNL11      -0.0835
     23 C          -4.1058    1.4583   -1.5082 C.ar    1  UNL11      -0.0387
     24 H           0.4348   -2.3909   -0.8688 H       1  UNL11       0.0424
     25 H           1.3538   -1.3641   -1.9767 H       1  UNL11       0.0424
     26 H           4.0505   -2.8584    1.8907 H       1  UNL11       0.4829
     27 H           4.1461    1.6954    2.9069 H       1  UNL11       0.0627
     28 H           2.9107    3.6054    2.0714 H       1  UNL11       0.0618
     29 H           1.2005    3.2823    0.3119 H       1  UNL11       0.0618
     30 H           0.7335    1.0461   -0.6034 H       1  UNL11       0.0624
     31 H           0.0452    0.4077   -2.8564 H       1  UNL11       0.1490
     32 H          -1.6836    1.9586   -2.8339 H       1  UNL11       0.0512
     33 H          -1.3561    2.1121   -1.0670 H       1  UNL11       0.0512
     34 H          -2.0742   -1.1948   -1.6156 H       1  UNL11       0.0621
     35 H          -4.1248   -2.3832   -1.2143 H       1  UNL11       0.0618
     36 H          -6.2269   -1.1563   -0.9891 H       1  UNL11       0.0632
     37 H          -4.0850    2.5242   -1.5923 H       1  UNL11       0.0635
@<TRIPOS>BOND
     1     1     2    2
     2     2     3    1
     3     2    15   am
     4     3     4    1
     5     3    24    1
     6     3    25    1
     7     4     5    2
     8     5     6    1
     9     6     7   am
    10     6    26    1
    11     7     8    2
    12     7     9    1
    13     9    10   ar
    14    10    11   ar
    15    10    27    1
    16    11    12   ar
    17    11    28    1
    18    12    13   ar
    19    12    29    1
    20    13    14   ar
    21    13    30    1
    22    14     4    1
    23    14     9   ar
    24    15    16    1
    25    15    31    1
    26    16    17    1
    27    16    32    1
    28    16    33    1
    29    17    18   ar
    30    18    19   ar
    31    18    34    1
    32    19    20   ar
    33    19    35    1
    34    20    21   ar
    35    20    36    1
    36    21    22    1
    37    21    23   ar
    38    23    17   ar
    39    23    37    1
@<TRIPOS>MOLECULE
*****
 37 39 0 0 0
SMALL
GASTEIGER

@<TRIPOS>ATOM
      1 O          -1.3961   -0.8429   -0.7106 O.2     1  UNL11      -0.2754
      2 C          -0.2340   -0.4035   -0.8823 C.2     1  UNL11       0.2193
      3 C           0.8792   -1.3689   -0.9523 C.3     1  UNL11       0.0725
      4 C           1.8971   -1.1513    0.1033 C.2     1  UNL11       0.1237
      5 N           1.5559   -1.2398    1.4022 N.2     1  UNL11      -0.0071
      6 N           2.4469   -1.0519    2.3778 N.am    1  UNL11      -0.0356
      7 C           3.7392   -0.7631    2.1486 C.2     1  UNL11       0.4383
      8 O           4.5710   -0.5878    3.0805 O.2     1  UNL11      -0.2116
      9 C           4.1519   -0.6587    0.8372 C.ar    1  UNL11       0.1004
     10 C           5.4681   -0.3637    0.5402 C.ar    1  UNL11      -0.0441
     11 C           5.8553   -0.2646   -0.7830 C.ar    1  UNL11      -0.0608
     12 C           4.9057   -0.4655   -1.7675 C.ar    1  UNL11      -0.0611
     13 C           3.5863   -0.7610   -1.4805 C.ar    1  UNL11      -0.0518
     14 C           3.2077   -0.8579   -0.1790 C.ar    1  UNL11       0.0194
     15 N           0.0003    0.9881   -1.0056 N.am    1  UNL11      -0.3109
     16 C           1.3255    1.4663   -1.2149 C.3     1  UNL11       0.0369
     17 C           1.5318    2.2228   -2.4492 C.ar    1  UNL11      -0.0289
     18 C           0.4281    2.3922   -3.2752 C.ar    1  UNL11      -0.0570
     19 C           0.4828    3.0803   -4.4616 C.ar    1  UNL11      -0.0601
     20 C           1.6581    3.6297   -4.8682 C.ar    1  UNL11      -0.0434
     21 C           2.7769    3.4731   -4.0577 C.ar    1  UNL11       0.0413
     22 CL          4.2959    4.1825   -4.5831 Cl      1  UNL11      -0.0835
     23 C           2.7136    2.7802   -2.8666 C.ar    1  UNL11      -0.0387
     24 H           0.4348   -2.3909   -0.8688 H       1  UNL11       0.0424
     25 H           1.3538   -1.3641   -1.9767 H       1  UNL11       0.0424
     26 H           2.1446   -1.1286    3.3720 H       1  UNL11       0.4829
     27 H           6.2215   -0.2049    1.2973 H       1  UNL11       0.0627
     28 H           6.8974   -0.0311   -1.0233 H       1  UNL11       0.0618
     29 H           5.2263   -0.3840   -2.8144 H       1  UNL11       0.0618
     30 H           2.8835   -0.9086   -2.2737 H       1  UNL11       0.0624
     31 H          -0.7961    1.6734   -0.9440 H       1  UNL11       0.1490
     32 H           2.0370    0.5991   -1.2358 H       1  UNL11       0.0512
     33 H           1.6080    2.0922   -0.3196 H       1  UNL11       0.0512
     34 H          -0.5287    1.9752   -2.9978 H       1  UNL11       0.0621
     35 H          -0.4189    3.1830   -5.0732 H       1  UNL11       0.0618
     36 H           1.6940    4.1705   -5.8048 H       1  UNL11       0.0632
     37 H           3.5747    2.6601   -2.2438 H       1  UNL11       0.0635
@<TRIPOS>BOND
     1     1     2    2
     2     2     3    1
     3     2    15   am
     4     3     4    1
     5     3    24    1
     6     3    25    1
     7     4     5    2
     8     5     6    1
     9     6     7   am
    10     6    26    1
    11     7     8    2
    12     7     9    1
    13     9    10   ar
    14    10    11   ar
    15    10    27    1
    16    11    12   ar
    17    11    28    1
    18    12    13   ar
    19    12    29    1
    20    13    14   ar
    21    13    30    1
    22    14     4    1
    23    14     9   ar
    24    15    16    1
    25    15    31    1
    26    16    17    1
    27    16    32    1
    28    16    33    1
    29    17    18   ar
    30    18    19   ar
    31    18    34    1
    32    19    20   ar
    33    19    35    1
    34    20    21   ar
    35    20    36    1
    36    21    22    1
    37    21    23   ar
    38    23    17   ar
    39    23    37    1
@<TRIPOS>MOLECULE
*****
 37 39 0 0 0
SMALL
GASTEIGER

@<TRIPOS>ATOM
      1 O          -1.3961   -0.8429   -0.7106 O.2     1  UNL11      -0.2754
      2 C          -0.2340   -0.4035   -0.8823 C.2     1  UNL11       0.2193
      3 C           0.8792   -1.3689   -0.9523 C.3     1  UNL11       0.0725
      4 C           1.8971   -1.1513    0.1033 C.2     1  UNL11       0.1237
      5 N           2.9454   -0.3382   -0.1235 N.2     1  UNL11      -0.0071
      6 N           3.8786   -0.1183    0.8048 N.am    1  UNL11      -0.0356
      7 C           3.8503   -0.6816    2.0246 C.2     1  UNL11       0.4383
      8 O           4.7394   -0.4651    2.8928 O.2     1  UNL11      -0.2116
      9 C           2.8006   -1.5257    2.3189 C.ar    1  UNL11       0.1004
     10 C           2.7186   -2.1336    3.5563 C.ar    1  UNL11      -0.0441
     11 C           1.6558   -2.9755    3.8253 C.ar    1  UNL11      -0.0608
     12 C           0.7076   -3.1801    2.8402 C.ar    1  UNL11      -0.0611
     13 C           0.7809   -2.5765    1.5989 C.ar    1  UNL11      -0.0518
     14 C           1.8265   -1.7492    1.3365 C.ar    1  UNL11       0.0194
     15 N           0.0003    0.9881   -1.0056 N.am    1  UNL11      -0.3109
     16 C          -1.0928    1.8983   -0.9346 C.3     1  UNL11       0.0369
     17 C          -2.1359    1.7058   -1.9413 C.ar    1  UNL11      -0.0289
     18 C          -3.4307    2.0553   -1.5802 C.ar    1  UNL11      -0.0570
     19 C          -4.5023    1.9254   -2.4280 C.ar    1  UNL11      -0.0601
     20 C          -4.3137    1.4355   -3.6821 C.ar    1  UNL11      -0.0434
     21 C          -3.0259    1.0789   -4.0662 C.ar    1  UNL11       0.0413
     22 CL         -2.7819    0.4453   -5.6866 Cl      1  UNL11      -0.0835
     23 C          -1.9541    1.2125   -3.2082 C.ar    1  UNL11      -0.0387
     24 H           0.4348   -2.3909   -0.8688 H       1  UNL11       0.0424
     25 H           1.3538   -1.3641   -1.9767 H       1  UNL11       0.0424
     26 H           4.6758    0.5179    0.5918 H       1  UNL11       0.4829
     27 H           3.4504   -1.9834    4.3361 H       1  UNL11       0.0627
     28 H           1.5864   -3.4594    4.8047 H       1  UNL11       0.0618
     29 H          -0.1315   -3.8510    3.0667 H       1  UNL11       0.0618
     30 H           0.0251   -2.7630    0.8649 H       1  UNL11       0.0624
     31 H           0.9756    1.3568   -1.1495 H       1  UNL11       0.1490
     32 H          -0.7133    2.9479   -1.0483 H       1  UNL11       0.0512
     33 H          -1.5309    1.8256    0.1027 H       1  UNL11       0.0512
     34 H          -3.6339    2.4490   -0.5953 H       1  UNL11       0.0621
     35 H          -5.5017    2.2168   -2.0904 H       1  UNL11       0.0618
     36 H          -5.1631    1.3356   -4.3451 H       1  UNL11       0.0632
     37 H          -0.9639    0.9378   -3.5044 H       1  UNL11       0.0635
@<TRIPOS>BOND
     1     1     2    2
     2     2     3    1
     3     2    15   am
     4     3     4    1
     5     3    24    1
     6     3    25    1
     7     4     5    2
     8     5     6    1
     9     6     7   am
    10     6    26    1
    11     7     8    2
    12     7     9    1
    13     9    10   ar
    14    10    11   ar
    15    10    27    1
    16    11    12   ar
    17    11    28    1
    18    12    13   ar
    19    12    29    1
    20    13    14   ar
    21    13    30    1
    22    14     4    1
    23    14     9   ar
    24    15    16    1
    25    15    31    1
    26    16    17    1
    27    16    32    1
    28    16    33    1
    29    17    18   ar
    30    18    19   ar
    31    18    34    1
    32    19    20   ar
    33    19    35    1
    34    20    21   ar
    35    20    36    1
    36    21    22    1
    37    21    23   ar
    38    23    17   ar
    39    23    37    1
@<TRIPOS>MOLECULE
*****
 37 39 0 0 0
SMALL
GASTEIGER

@<TRIPOS>ATOM
      1 O          -0.4447    0.3383   -1.8714 O.2     1  UNL11      -0.2754
      2 C          -0.2340   -0.4035   -0.8823 C.2     1  UNL11       0.2193
      3 C           0.8792   -1.3689   -0.9523 C.3     1  UNL11       0.0725
      4 C           1.8971   -1.1513    0.1033 C.2     1  UNL11       0.1237
      5 N           1.7466   -0.1541    0.9946 N.2     1  UNL11      -0.0071
      6 N           2.6421    0.0687    1.9586 N.am    1  UNL11      -0.0356
      7 C           3.7519   -0.6723    2.1176 C.2     1  UNL11       0.4383
      8 O           4.5904   -0.4505    3.0334 O.2     1  UNL11      -0.2116
      9 C           3.9638   -1.7104    1.2353 C.ar    1  UNL11       0.1004
     10 C           5.0869   -2.5061    1.3493 C.ar    1  UNL11      -0.0441
     11 C           5.2753   -3.5400    0.4515 C.ar    1  UNL11      -0.0608
     12 C           4.3271   -3.7418   -0.5342 C.ar    1  UNL11      -0.0611
     13 C           3.2001   -2.9510   -0.6566 C.ar    1  UNL11      -0.0518
     14 C           3.0168   -1.9350    0.2271 C.ar    1  UNL11       0.0194
     15 N          -1.0481   -0.3137    0.2734 N.am    1  UNL11      -0.3109
     16 C          -2.1163    0.6275    0.3146 C.3     1  UNL11       0.0369
     17 C          -2.2788    1.4450   -0.8870 C.ar    1  UNL11      -0.0289
     18 C          -3.4940    1.3498   -1.5530 C.ar    1  UNL11      -0.0570
     19 C          -3.7781    2.0610   -2.6919 C.ar    1  UNL11      -0.0601
     20 C          -2.8451    2.9028   -3.2110 C.ar    1  UNL11      -0.0434
     21 C          -1.6208    3.0147   -2.5614 C.ar    1  UNL11       0.0413
     22 CL         -0.4148    4.1019   -3.2322 Cl      1  UNL11      -0.0835
     23 C          -1.3430    2.2964   -1.4171 C.ar    1  UNL11      -0.0387
     24 H           0.4348   -2.3909   -0.8688 H       1  UNL11       0.0424
     25 H           1.3538   -1.3641   -1.9767 H       1  UNL11       0.0424
     26 H           2.4907    0.8509    2.6301 H       1  UNL11       0.4829
     27 H           5.8359   -2.3619    2.1138 H       1  UNL11       0.0627
     28 H           6.1638   -4.1734    0.5380 H       1  UNL11       0.0618
     29 H           4.4886   -4.5664   -1.2409 H       1  UNL11       0.0618
     30 H           2.4912   -3.1419   -1.4351 H       1  UNL11       0.0624
     31 H          -0.8714   -0.9363    1.1034 H       1  UNL11       0.1490
     32 H          -1.9617    1.3311    1.1747 H       1  UNL11       0.0512
     33 H          -3.0655    0.0576    0.5323 H       1  UNL11       0.0512
     34 H          -4.2685    0.6952   -1.1817 H       1  UNL11       0.0621
     35 H          -4.7532    1.9471   -3.1756 H       1  UNL11       0.0618
     36 H          -3.0758    3.4601   -4.1093 H       1  UNL11       0.0632
     37 H          -0.4011    2.3829   -0.9181 H       1  UNL11       0.0635
@<TRIPOS>BOND
     1     1     2    2
     2     2     3    1
     3     2    15   am
     4     3     4    1
     5     3    24    1
     6     3    25    1
     7     4     5    2
     8     5     6    1
     9     6     7   am
    10     6    26    1
    11     7     8    2
    12     7     9    1
    13     9    10   ar
    14    10    11   ar
    15    10    27    1
    16    11    12   ar
    17    11    28    1
    18    12    13   ar
    19    12    29    1
    20    13    14   ar
    21    13    30    1
    22    14     4    1
    23    14     9   ar
    24    15    16    1
    25    15    31    1
    26    16    17    1
    27    16    32    1
    28    16    33    1
    29    17    18   ar
    30    18    19   ar
    31    18    34    1
    32    19    20   ar
    33    19    35    1
    34    20    21   ar
    35    20    36    1
    36    21    22    1
    37    21    23   ar
    38    23    17   ar
    39    23    37    1
@<TRIPOS>MOLECULE
*****
 37 39 0 0 0
SMALL
GASTEIGER

@<TRIPOS>ATOM
      1 O          -1.3961   -0.8429   -0.7106 O.2     1  UNL11      -0.2754
      2 C          -0.2340   -0.4035   -0.8823 C.2     1  UNL11       0.2193
      3 C           0.8792   -1.3689   -0.9523 C.3     1  UNL11       0.0725
      4 C           1.8971   -1.1513    0.1033 C.2     1  UNL11       0.1237
      5 N           2.1687   -2.1235    0.9935 N.2     1  UNL11      -0.0071
      6 N           3.0800   -1.9622    1.9549 N.am    1  UNL11      -0.0356
      7 C           3.7917   -0.8332    2.1124 C.2     1  UNL11       0.4383
      8 O           4.6502   -0.6940    3.0260 O.2     1  UNL11      -0.2116
      9 C           3.5596    0.2014    1.2311 C.ar    1  UNL11       0.1004
     10 C           4.2607    1.3860    1.3438 C.ar    1  UNL11      -0.0441
     11 C           4.0084    2.4072    0.4471 C.ar    1  UNL11      -0.0608
     12 C           3.0578    2.2052   -0.5361 C.ar    1  UNL11      -0.0611
     13 C           2.3508    1.0236   -0.6571 C.ar    1  UNL11      -0.0518
     14 C           2.6004    0.0208    0.2255 C.ar    1  UNL11       0.0194
     15 N           0.0003    0.9881   -1.0056 N.am    1  UNL11      -0.3109
     16 C           1.3255    1.4663   -1.2149 C.3     1  UNL11       0.0369
     17 C           2.2148    0.5554   -1.9346 C.ar    1  UNL11      -0.0289
     18 C           2.2510    0.6740   -3.3180 C.ar    1  UNL11      -0.0570
     19 C           3.0410   -0.1173   -4.1141 C.ar    1  UNL11      -0.0601
     20 C           3.8321   -1.0666   -3.5471 C.ar    1  UNL11      -0.0434
     21 C           3.8126   -1.2039   -2.1636 C.ar    1  UNL11       0.0413
     22 CL          4.8344   -2.4308   -1.4307 Cl      1  UNL11      -0.0835
     23 C           3.0159   -0.4046   -1.3705 C.ar    1  UNL11      -0.0387
     24 H           0.4348   -2.3909   -0.8688 H       1  UNL11       0.0424
     25 H           1.3538   -1.3641   -1.9767 H       1  UNL11       0.0424
     26 H           3.2624   -2.7383    2.6259 H       1  UNL11       0.4829
     27 H           5.0066    1.5589    2.1053 H       1  UNL11       0.0627
     28 H           4.5617    3.3479    0.5324 H       1  UNL11       0.0618
     29 H           2.8670    3.0242   -1.2419 H       1  UNL11       0.0618
     30 H           1.6230    0.9094   -1.4330 H       1  UNL11       0.0624
     31 H          -0.7961    1.6734   -0.9440 H       1  UNL11       0.1490
     32 H           1.8055    1.6830   -0.2243 H       1  UNL11       0.0512
     33 H           1.2509    2.4523   -1.7584 H       1  UNL11       0.0512
     34 H           1.6413    1.4124   -3.8174 H       1  UNL11       0.0621
     35 H           3.0300    0.0201   -5.1998 H       1  UNL11       0.0618
     36 H           4.4521   -1.6870   -4.1808 H       1  UNL11       0.0632
     37 H           3.0013   -0.5109   -0.3065 H       1  UNL11       0.0635
@<TRIPOS>BOND
     1     1     2    2
     2     2     3    1
     3     2    15   am
     4     3     4    1
     5     3    24    1
     6     3    25    1
     7     4     5    2
     8     5     6    1
     9     6     7   am
    10     6    26    1
    11     7     8    2
    12     7     9    1
    13     9    10   ar
    14    10    11   ar
    15    10    27    1
    16    11    12   ar
    17    11    28    1
    18    12    13   ar
    19    12    29    1
    20    13    14   ar
    21    13    30    1
    22    14     4    1
    23    14     9   ar
    24    15    16    1
    25    15    31    1
    26    16    17    1
    27    16    32    1
    28    16    33    1
    29    17    18   ar
    30    18    19   ar
    31    18    34    1
    32    19    20   ar
    33    19    35    1
    34    20    21   ar
    35    20    36    1
    36    21    22    1
    37    21    23   ar
    38    23    17   ar
    39    23    37    1
@<TRIPOS>MOLECULE
*****
 37 39 0 0 0
SMALL
GASTEIGER

@<TRIPOS>ATOM
      1 O          -0.9166   -0.3539    0.1686 O.2     1  UNL11      -0.2754
      2 C          -0.2340   -0.4035   -0.8823 C.2     1  UNL11       0.2193
      3 C           0.8792   -1.3689   -0.9523 C.3     1  UNL11       0.0725
      4 C           1.8971   -1.1513    0.1033 C.2     1  UNL11       0.1237
      5 N           1.5559   -1.2398    1.4022 N.2     1  UNL11      -0.0071
      6 N           2.4469   -1.0519    2.3778 N.am    1  UNL11      -0.0356
      7 C           3.7392   -0.7631    2.1486 C.2     1  UNL11       0.4383
      8 O           4.5710   -0.5878    3.0805 O.2     1  UNL11      -0.2116
      9 C           4.1519   -0.6587    0.8372 C.ar    1  UNL11       0.1004
     10 C           5.4681   -0.3637    0.5402 C.ar    1  UNL11      -0.0441
     11 C           5.8553   -0.2646   -0.7830 C.ar    1  UNL11      -0.0608
     12 C           4.9057   -0.4655   -1.7675 C.ar    1  UNL11      -0.0611
     13 C           3.5863   -0.7610   -1.4805 C.ar    1  UNL11      -0.0518
     14 C           3.2077   -0.8579   -0.1790 C.ar    1  UNL11       0.0194
     15 N          -0.5279    0.4492   -1.9746 N.am    1  UNL11      -0.3109
     16 C           0.2499    0.3674   -3.1649 C.3     1  UNL11       0.0369
     17 C           1.6807    0.6193   -2.9979 C.ar    1  UNL11      -0.0289
     18 C           2.1230    0.9076   -1.7132 C.ar    1  UNL11      -0.0570
     19 C           3.4385    1.1637   -1.4171 C.ar    1  UNL11      -0.0601
     20 C           4.3691    1.1399   -2.4080 C.ar    1  UNL11      -0.0434
     21 C           3.9499    0.8535   -3.7024 C.ar    1  UNL11       0.0413
     22 CL          5.1521    0.8232   -4.9832 Cl      1  UNL11      -0.0835
     23 C           2.6258    0.5971   -3.9918 C.ar    1  UNL11      -0.0387
     24 H           0.4348   -2.3909   -0.8688 H       1  UNL11       0.0424
     25 H           1.3538   -1.3641   -1.9767 H       1  UNL11       0.0424
     26 H           2.1446   -1.1286    3.3720 H       1  UNL11       0.4829
     27 H           6.2215   -0.2049    1.2973 H       1  UNL11       0.0627
     28 H           6.8974   -0.0311   -1.0233 H       1  UNL11       0.0618
     29 H           5.2263   -0.3840   -2.8144 H       1  UNL11       0.0618
     30 H           2.8835   -0.9086   -2.2737 H       1  UNL11       0.0624
     31 H          -1.3164    1.1439   -1.9154 H       1  UNL11       0.1490
     32 H          -0.1317    1.1115   -3.9128 H       1  UNL11       0.0512
     33 H           0.0814   -0.6542   -3.6134 H       1  UNL11       0.0512
     34 H           1.4237    0.9390   -0.8909 H       1  UNL11       0.0621
     35 H           3.7311    1.3852   -0.3861 H       1  UNL11       0.0618
     36 H           5.4044    1.3430   -2.1674 H       1  UNL11       0.0632
     37 H           2.3042    0.3770   -4.9877 H       1  UNL11       0.0635
@<TRIPOS>BOND
     1     1     2    2
     2     2     3    1
     3     2    15   am
     4     3     4    1
     5     3    24    1
     6     3    25    1
     7     4     5    2
     8     5     6    1
     9     6     7   am
    10     6    26    1
    11     7     8    2
    12     7     9    1
    13     9    10   ar
    14    10    11   ar
    15    10    27    1
    16    11    12   ar
    17    11    28    1
    18    12    13   ar
    19    12    29    1
    20    13    14   ar
    21    13    30    1
    22    14     4    1
    23    14     9   ar
    24    15    16    1
    25    15    31    1
    26    16    17    1
    27    16    32    1
    28    16    33    1
    29    17    18   ar
    30    18    19   ar
    31    18    34    1
    32    19    20   ar
    33    19    35    1
    34    20    21   ar
    35    20    36    1
    36    21    22    1
    37    21    23   ar
    38    23    17   ar
    39    23    37    1
@<TRIPOS>MOLECULE
*****
 37 39 0 0 0
SMALL
GASTEIGER

@<TRIPOS>ATOM
      1 O          -1.3961   -0.8429   -0.7106 O.2     1  UNL11      -0.2754
      2 C          -0.2340   -0.4035   -0.8823 C.2     1  UNL11       0.2193
      3 C           0.8792   -1.3689   -0.9523 C.3     1  UNL11       0.0725
      4 C           1.8971   -1.1513    0.1033 C.2     1  UNL11       0.1237
      5 N           2.6011   -2.1899    0.5902 N.2     1  UNL11      -0.0071
      6 N           3.5260   -2.0296    1.5388 N.am    1  UNL11      -0.0356
      7 C           3.8272   -0.8365    2.0789 C.2     1  UNL11       0.4383
      8 O           4.7039   -0.6993    2.9753 O.2     1  UNL11      -0.2116
      9 C           3.1400    0.2680    1.6219 C.ar    1  UNL11       0.1004
     10 C           3.4064    1.5203    2.1398 C.ar    1  UNL11      -0.0441
     11 C           2.7029    2.6109    1.6641 C.ar    1  UNL11      -0.0608
     12 C           1.7522    2.4078    0.6811 C.ar    1  UNL11      -0.0611
     13 C           1.4782    1.1586    0.1565 C.ar    1  UNL11      -0.0518
     14 C           2.1710    0.0878    0.6256 C.ar    1  UNL11       0.0194
     15 N           0.0003    0.9881   -1.0056 N.am    1  UNL11      -0.3109
     16 C          -1.0928    1.8983   -0.9346 C.3     1  UNL11       0.0369
     17 C          -2.1359    1.7058   -1.9413 C.ar    1  UNL11      -0.0289
     18 C          -3.4307    2.0553   -1.5802 C.ar    1  UNL11      -0.0570
     19 C          -4.5023    1.9254   -2.4280 C.ar    1  UNL11      -0.0601
     20 C          -4.3137    1.4355   -3.6821 C.ar    1  UNL11      -0.0434
     21 C          -3.0259    1.0789   -4.0662 C.ar    1  UNL11       0.0413
     22 CL         -2.7819    0.4453   -5.6866 Cl      1  UNL11      -0.0835
     23 C          -1.9541    1.2125   -3.2082 C.ar    1  UNL11      -0.0387
     24 H           0.4348   -2.3909   -0.8688 H       1  UNL11       0.0424
     25 H           1.3538   -1.3641   -1.9767 H       1  UNL11       0.0424
     26 H           4.0505   -2.8584    1.8907 H       1  UNL11       0.4829
     27 H           4.1461    1.6954    2.9069 H       1  UNL11       0.0627
     28 H           2.9107    3.6054    2.0714 H       1  UNL11       0.0618
     29 H           1.2005    3.2823    0.3119 H       1  UNL11       0.0618
     30 H           0.7335    1.0461   -0.6034 H       1  UNL11       0.0624
     31 H           0.9756    1.3568   -1.1495 H       1  UNL11       0.1490
     32 H          -0.7133    2.9479   -1.0483 H       1  UNL11       0.0512
     33 H          -1.5309    1.8256    0.1027 H       1  UNL11       0.0512
     34 H          -3.6339    2.4490   -0.5953 H       1  UNL11       0.0621
     35 H          -5.5017    2.2168   -2.0904 H       1  UNL11       0.0618
     36 H          -5.1631    1.3356   -4.3451 H       1  UNL11       0.0632
     37 H          -0.9639    0.9378   -3.5044 H       1  UNL11       0.0635
@<TRIPOS>BOND
     1     1     2    2
     2     2     3    1
     3     2    15   am
     4     3     4    1
     5     3    24    1
     6     3    25    1
     7     4     5    2
     8     5     6    1
     9     6     7   am
    10     6    26    1
    11     7     8    2
    12     7     9    1
    13     9    10   ar
    14    10    11   ar
    15    10    27    1
    16    11    12   ar
    17    11    28    1
    18    12    13   ar
    19    12    29    1
    20    13    14   ar
    21    13    30    1
    22    14     4    1
    23    14     9   ar
    24    15    16    1
    25    15    31    1
    26    16    17    1
    27    16    32    1
    28    16    33    1
    29    17    18   ar
    30    18    19   ar
    31    18    34    1
    32    19    20   ar
    33    19    35    1
    34    20    21   ar
    35    20    36    1
    36    21    22    1
    37    21    23   ar
    38    23    17   ar
    39    23    37    1
@<TRIPOS>MOLECULE
*****
 37 39 0 0 0
SMALL
GASTEIGER

@<TRIPOS>ATOM
      1 O          -1.3961   -0.8429   -0.7106 O.2     1  UNL11      -0.2754
      2 C          -0.2340   -0.4035   -0.8823 C.2     1  UNL11       0.2193
      3 C           0.8792   -1.3689   -0.9523 C.3     1  UNL11       0.0725
      4 C           1.8971   -1.1513    0.1033 C.2     1  UNL11       0.1237
      5 N           2.9853   -1.9406    0.1684 N.2     1  UNL11      -0.0071
      6 N           3.9219   -1.7715    1.1038 N.am    1  UNL11      -0.0356
      7 C           3.8579   -0.8140    2.0446 C.2     1  UNL11       0.4383
      8 O           4.7505   -0.6653    2.9234 O.2     1  UNL11      -0.2116
      9 C           2.7664    0.0283    2.0316 C.ar    1  UNL11       0.1004
     10 C           2.6462    1.0309    2.9738 C.ar    1  UNL11      -0.0441
     11 C           1.5417    1.8613    2.9383 C.ar    1  UNL11      -0.0608
     12 C           0.5914    1.6572    1.9551 C.ar    1  UNL11      -0.0611
     13 C           0.7025    0.6566    1.0080 C.ar    1  UNL11      -0.0518
     14 C           1.7891   -0.1586    1.0447 C.ar    1  UNL11       0.0194
     15 N           0.0003    0.9881   -1.0056 N.am    1  UNL11      -0.3109
     16 C          -1.0928    1.8983   -0.9346 C.3     1  UNL11       0.0369
     17 C          -2.1359    1.7058   -1.9413 C.ar    1  UNL11      -0.0289
     18 C          -2.3864    2.7693   -2.7989 C.ar    1  UNL11      -0.0570
     19 C          -3.3372    2.7223   -3.7876 C.ar    1  UNL11      -0.0601
     20 C          -4.0799    1.5959   -3.9550 C.ar    1  UNL11      -0.0434
     21 C          -3.8470    0.5180   -3.1082 C.ar    1  UNL11       0.0413
     22 CL         -4.8069   -0.9375   -3.3240 Cl      1  UNL11      -0.0835
     23 C          -2.8894    0.5732   -2.1169 C.ar    1  UNL11      -0.0387
     24 H           0.4348   -2.3909   -0.8688 H       1  UNL11       0.0424
     25 H           1.3538   -1.3641   -1.9767 H       1  UNL11       0.0424
     26 H           4.7504   -2.4031    1.1219 H       1  UNL11       0.4829
     27 H           3.3799    1.2036    3.7471 H       1  UNL11       0.0627
     28 H           1.4422    2.6574    3.6829 H       1  UNL11       0.0618
     29 H          -0.2810    2.3236    1.9380 H       1  UNL11       0.0618
     30 H          -0.0569    0.5333    0.2644 H       1  UNL11       0.0624
     31 H           0.9756    1.3568   -1.1495 H       1  UNL11       0.1490
     32 H          -0.7133    2.9479   -1.0483 H       1  UNL11       0.0512
     33 H          -1.5309    1.8256    0.1027 H       1  UNL11       0.0512
     34 H          -1.8239    3.6867   -2.7074 H       1  UNL11       0.0621
     35 H          -3.4922    3.5907   -4.4353 H       1  UNL11       0.0618
     36 H          -4.8280    1.5659   -4.7363 H       1  UNL11       0.0632
     37 H          -2.7109   -0.2563   -1.4659 H       1  UNL11       0.0635
@<TRIPOS>BOND
     1     1     2    2
     2     2     3    1
     3     2    15   am
     4     3     4    1
     5     3    24    1
     6     3    25    1
     7     4     5    2
     8     5     6    1
     9     6     7   am
    10     6    26    1
    11     7     8    2
    12     7     9    1
    13     9    10   ar
    14    10    11   ar
    15    10    27    1
    16    11    12   ar
    17    11    28    1
    18    12    13   ar
    19    12    29    1
    20    13    14   ar
    21    13    30    1
    22    14     4    1
    23    14     9   ar
    24    15    16    1
    25    15    31    1
    26    16    17    1
    27    16    32    1
    28    16    33    1
    29    17    18   ar
    30    18    19   ar
    31    18    34    1
    32    19    20   ar
    33    19    35    1
    34    20    21   ar
    35    20    36    1
    36    21    22    1
    37    21    23   ar
    38    23    17   ar
    39    23    37    1
@<TRIPOS>MOLECULE
*****
 37 39 0 0 0
SMALL
GASTEIGER

@<TRIPOS>ATOM
      1 O          -0.8137   -0.0818   -1.9469 O.2     1  UNL11      -0.2754
      2 C          -0.2340   -0.4035   -0.8823 C.2     1  UNL11       0.2193
      3 C           0.8792   -1.3689   -0.9523 C.3     1  UNL11       0.0725
      4 C           1.8971   -1.1513    0.1033 C.2     1  UNL11       0.1237
      5 N           2.9454   -0.3382   -0.1235 N.2     1  UNL11      -0.0071
      6 N           3.8786   -0.1183    0.8048 N.am    1  UNL11      -0.0356
      7 C           3.8503   -0.6816    2.0246 C.2     1  UNL11       0.4383
      8 O           4.7394   -0.4651    2.8928 O.2     1  UNL11      -0.2116
      9 C           2.8006   -1.5257    2.3189 C.ar    1  UNL11       0.1004
     10 C           2.7186   -2.1336    3.5563 C.ar    1  UNL11      -0.0441
     11 C           1.6558   -2.9755    3.8253 C.ar    1  UNL11      -0.0608
     12 C           0.7076   -3.1801    2.8402 C.ar    1  UNL11      -0.0611
     13 C           0.7809   -2.5765    1.5989 C.ar    1  UNL11      -0.0518
     14 C           1.8265   -1.7492    1.3365 C.ar    1  UNL11       0.0194
     15 N          -0.6415    0.1492    0.3567 N.am    1  UNL11      -0.3109
     16 C           0.0392   -0.2176    1.5527 C.3     1  UNL11       0.0369
     17 C          -0.5075   -1.3781    2.2549 C.ar    1  UNL11      -0.0289
     18 C           0.3884   -2.1557    2.9773 C.ar    1  UNL11      -0.0570
     19 C           0.0090   -3.2712    3.6813 C.ar    1  UNL11      -0.0601
     20 C          -1.2959   -3.6526    3.6873 C.ar    1  UNL11      -0.0434
     21 C          -2.2114   -2.8895    2.9711 C.ar    1  UNL11       0.0413
     22 CL         -3.8977   -3.3823    2.9782 Cl      1  UNL11      -0.0835
     23 C          -1.8221   -1.7696    2.2662 C.ar    1  UNL11      -0.0387
     24 H           0.4348   -2.3909   -0.8688 H       1  UNL11       0.0424
     25 H           1.3538   -1.3641   -1.9767 H       1  UNL11       0.0424
     26 H           4.6758    0.5179    0.5918 H       1  UNL11       0.4829
     27 H           3.4504   -1.9834    4.3361 H       1  UNL11       0.0627
     28 H           1.5864   -3.4594    4.8047 H       1  UNL11       0.0618
     29 H          -0.1315   -3.8510    3.0667 H       1  UNL11       0.0618
     30 H           0.0251   -2.7630    0.8649 H       1  UNL11       0.0624
     31 H          -1.4434    0.8293    0.4024 H       1  UNL11       0.1490
     32 H           0.0210    0.6429    2.2723 H       1  UNL11       0.0512
     33 H           1.1222   -0.3933    1.2892 H       1  UNL11       0.0512
     34 H           1.4363   -1.8957    3.0046 H       1  UNL11       0.0621
     35 H           0.7581   -3.8470    4.2336 H       1  UNL11       0.0618
     36 H          -1.5879   -4.5332    4.2441 H       1  UNL11       0.0632
     37 H          -2.5267   -1.1832    1.7154 H       1  UNL11       0.0635
@<TRIPOS>BOND
     1     1     2    2
     2     2     3    1
     3     2    15   am
     4     3     4    1
     5     3    24    1
     6     3    25    1
     7     4     5    2
     8     5     6    1
     9     6     7   am
    10     6    26    1
    11     7     8    2
    12     7     9    1
    13     9    10   ar
    14    10    11   ar
    15    10    27    1
    16    11    12   ar
    17    11    28    1
    18    12    13   ar
    19    12    29    1
    20    13    14   ar
    21    13    30    1
    22    14     4    1
    23    14     9   ar
    24    15    16    1
    25    15    31    1
    26    16    17    1
    27    16    32    1
    28    16    33    1
    29    17    18   ar
    30    18    19   ar
    31    18    34    1
    32    19    20   ar
    33    19    35    1
    34    20    21   ar
    35    20    36    1
    36    21    22    1
    37    21    23   ar
    38    23    17   ar
    39    23    37    1
@<TRIPOS>MOLECULE
*****
 37 39 0 0 0
SMALL
GASTEIGER

@<TRIPOS>ATOM
      1 O          -1.3961   -0.8429   -0.7106 O.2     1  UNL11      -0.2754
      2 C          -0.2340   -0.4035   -0.8823 C.2     1  UNL11       0.2193
      3 C           0.8792   -1.3689   -0.9523 C.3     1  UNL11       0.0725
      4 C           1.8971   -1.1513    0.1033 C.2     1  UNL11       0.1237
      5 N           1.5559   -1.2398    1.4022 N.2     1  UNL11      -0.0071
      6 N           2.4469   -1.0519    2.3778 N.am    1  UNL11      -0.0356
      7 C           3.7392   -0.7631    2.1486 C.2     1  UNL11       0.4383
      8 O           4.5710   -0.5878    3.0805 O.2     1  UNL11      -0.2116
      9 C           4.1519   -0.6587    0.8372 C.ar    1  UNL11       0.1004
     10 C           5.4681   -0.3637    0.5402 C.ar    1  UNL11      -0.0441
     11 C           5.8553   -0.2646   -0.7830 C.ar    1  UNL11      -0.0608
     12 C           4.9057   -0.4655   -1.7675 C.ar    1  UNL11      -0.0611
     13 C           3.5863   -0.7610   -1.4805 C.ar    1  UNL11      -0.0518
     14 C           3.2077   -0.8579   -0.1790 C.ar    1  UNL11       0.0194
     15 N           0.0003    0.9881   -1.0056 N.am    1  UNL11      -0.3109
     16 C           1.3255    1.4663   -1.2149 C.3     1  UNL11       0.0369
     17 C           1.5318    2.2228   -2.4492 C.ar    1  UNL11      -0.0289
     18 C           2.5060    3.2126   -2.4250 C.ar    1  UNL11      -0.0570
     19 C           2.8009    3.9957   -3.5129 C.ar    1  UNL11      -0.0601
     20 C           2.1233    3.8139   -4.6775 C.ar    1  UNL11      -0.0434
     21 C           1.1433    2.8287   -4.7257 C.ar    1  UNL11       0.0413
     22 CL          0.2671    2.5939   -6.2303 Cl      1  UNL11      -0.0835
     23 C           0.8529    2.0457   -3.6279 C.ar    1  UNL11      -0.0387
     24 H           0.4348   -2.3909   -0.8688 H       1  UNL11       0.0424
     25 H           1.3538   -1.3641   -1.9767 H       1  UNL11       0.0424
     26 H           2.1446   -1.1286    3.3720 H       1  UNL11       0.4829
     27 H           6.2215   -0.2049    1.2973 H       1  UNL11       0.0627
     28 H           6.8974   -0.0311   -1.0233 H       1  UNL11       0.0618
     29 H           5.2263   -0.3840   -2.8144 H       1  UNL11       0.0618
     30 H           2.8835   -0.9086   -2.2737 H       1  UNL11       0.0624
     31 H          -0.7961    1.6734   -0.9440 H       1  UNL11       0.1490
     32 H           2.0370    0.5991   -1.2358 H       1  UNL11       0.0512
     33 H           1.6080    2.0922   -0.3196 H       1  UNL11       0.0512
     34 H           3.0725    3.3971   -1.5243 H       1  UNL11       0.0621
     35 H           3.5792    4.7614   -3.4373 H       1  UNL11       0.0618
     36 H           2.3608    4.4351   -5.5311 H       1  UNL11       0.0632
     37 H           0.0989    1.2883   -3.6657 H       1  UNL11       0.0635
@<TRIPOS>BOND
     1     1     2    2
     2     2     3    1
     3     2    15   am
     4     3     4    1
     5     3    24    1
     6     3    25    1
     7     4     5    2
     8     5     6    1
     9     6     7   am
    10     6    26    1
    11     7     8    2
    12     7     9    1
    13     9    10   ar
    14    10    11   ar
    15    10    27    1
    16    11    12   ar
    17    11    28    1
    18    12    13   ar
    19    12    29    1
    20    13    14   ar
    21    13    30    1
    22    14     4    1
    23    14     9   ar
    24    15    16    1
    25    15    31    1
    26    16    17    1
    27    16    32    1
    28    16    33    1
    29    17    18   ar
    30    18    19   ar
    31    18    34    1
    32    19    20   ar
    33    19    35    1
    34    20    21   ar
    35    20    36    1
    36    21    22    1
    37    21    23   ar
    38    23    17   ar
    39    23    37    1
@<TRIPOS>MOLECULE
*****
 37 39 0 0 0
SMALL
GASTEIGER

@<TRIPOS>ATOM
      1 O          -0.5473    0.0671    0.2372 O.2     1  UNL11      -0.2754
      2 C          -0.2340   -0.4035   -0.8823 C.2     1  UNL11       0.2193
      3 C           0.8792   -1.3689   -0.9523 C.3     1  UNL11       0.0725
      4 C           1.8971   -1.1513    0.1033 C.2     1  UNL11       0.1237
      5 N           1.5559   -1.2398    1.4022 N.2     1  UNL11      -0.0071
      6 N           2.4469   -1.0519    2.3778 N.am    1  UNL11      -0.0356
      7 C           3.7392   -0.7631    2.1486 C.2     1  UNL11       0.4383
      8 O           4.5710   -0.5878    3.0805 O.2     1  UNL11      -0.2116
      9 C           4.1519   -0.6587    0.8372 C.ar    1  UNL11       0.1004
     10 C           5.4681   -0.3637    0.5402 C.ar    1  UNL11      -0.0441
     11 C           5.8553   -0.2646   -0.7830 C.ar    1  UNL11      -0.0608
     12 C           4.9057   -0.4655   -1.7675 C.ar    1  UNL11      -0.0611
     13 C           3.5863   -0.7610   -1.4805 C.ar    1  UNL11      -0.0518
     14 C           3.2077   -0.8579   -0.1790 C.ar    1  UNL11       0.0194
     15 N          -0.9349   -0.0146   -2.0502 N.am    1  UNL11      -0.3109
     16 C          -0.5735   -0.5715   -3.3103 C.3     1  UNL11       0.0369
     17 C          -0.1418    0.3925   -4.3216 C.ar    1  UNL11      -0.0289
     18 C           0.7856   -0.0493   -5.2564 C.ar    1  UNL11      -0.0570
     19 C           1.2746    0.7515   -6.2582 C.ar    1  UNL11      -0.0601
     20 C           0.8476    2.0382   -6.3611 C.ar    1  UNL11      -0.0434
     21 C          -0.0809    2.5030   -5.4363 C.ar    1  UNL11       0.0413
     22 CL         -0.6324    4.1658   -5.5687 Cl      1  UNL11      -0.0835
     23 C          -0.5675    1.6917   -4.4324 C.ar    1  UNL11      -0.0387
     24 H           0.4348   -2.3909   -0.8688 H       1  UNL11       0.0424
     25 H           1.3538   -1.3641   -1.9767 H       1  UNL11       0.0424
     26 H           2.1446   -1.1286    3.3720 H       1  UNL11       0.4829
     27 H           6.2215   -0.2049    1.2973 H       1  UNL11       0.0627
     28 H           6.8974   -0.0311   -1.0233 H       1  UNL11       0.0618
     29 H           5.2263   -0.3840   -2.8144 H       1  UNL11       0.0618
     30 H           2.8835   -0.9086   -2.2737 H       1  UNL11       0.0624
     31 H          -1.7213    0.6828   -1.9963 H       1  UNL11       0.1490
     32 H          -1.4483   -1.1292   -3.7373 H       1  UNL11       0.0512
     33 H           0.2360   -1.3358   -3.1264 H       1  UNL11       0.0512
     34 H           1.1568   -1.0628   -5.2183 H       1  UNL11       0.0621
     35 H           2.0046    0.3505   -6.9681 H       1  UNL11       0.0618
     36 H           1.2375    2.6639   -7.1531 H       1  UNL11       0.0632
     37 H          -1.2815    2.0500   -3.7215 H       1  UNL11       0.0635
@<TRIPOS>BOND
     1     1     2    2
     2     2     3    1
     3     2    15   am
     4     3     4    1
     5     3    24    1
     6     3    25    1
     7     4     5    2
     8     5     6    1
     9     6     7   am
    10     6    26    1
    11     7     8    2
    12     7     9    1
    13     9    10   ar
    14    10    11   ar
    15    10    27    1
    16    11    12   ar
    17    11    28    1
    18    12    13   ar
    19    12    29    1
    20    13    14   ar
    21    13    30    1
    22    14     4    1
    23    14     9   ar
    24    15    16    1
    25    15    31    1
    26    16    17    1
    27    16    32    1
    28    16    33    1
    29    17    18   ar
    30    18    19   ar
    31    18    34    1
    32    19    20   ar
    33    19    35    1
    34    20    21   ar
    35    20    36    1
    36    21    22    1
    37    21    23   ar
    38    23    17   ar
    39    23    37    1
@<TRIPOS>MOLECULE
*****
 37 39 0 0 0
SMALL
GASTEIGER

@<TRIPOS>ATOM
      1 O          -0.1385    0.6665   -1.5295 O.2     1  UNL11      -0.2754
      2 C          -0.2340   -0.4035   -0.8823 C.2     1  UNL11       0.2193
      3 C           0.8792   -1.3689   -0.9523 C.3     1  UNL11       0.0725
      4 C           1.8971   -1.1513    0.1033 C.2     1  UNL11       0.1237
      5 N           2.9454   -0.3382   -0.1235 N.2     1  UNL11      -0.0071
      6 N           3.8786   -0.1183    0.8048 N.am    1  UNL11      -0.0356
      7 C           3.8503   -0.6816    2.0246 C.2     1  UNL11       0.4383
      8 O           4.7394   -0.4651    2.8928 O.2     1  UNL11      -0.2116
      9 C           2.8006   -1.5257    2.3189 C.ar    1  UNL11       0.1004
     10 C           2.7186   -2.1336    3.5563 C.ar    1  UNL11      -0.0441
     11 C           1.6558   -2.9755    3.8253 C.ar    1  UNL11      -0.0608
     12 C           0.7076   -3.1801    2.8402 C.ar    1  UNL11      -0.0611
     13 C           0.7809   -2.5765    1.5989 C.ar    1  UNL11      -0.0518
     14 C           1.8265   -1.7492    1.3365 C.ar    1  UNL11       0.0194
     15 N          -1.3855   -0.6754   -0.1034 N.am    1  UNL11      -0.3109
     16 C          -1.4685   -1.8897    0.6362 C.3     1  UNL11       0.0369
     17 C          -2.8186   -2.4206    0.8210 C.ar    1  UNL11      -0.0289
     18 C          -3.0556   -3.1464    1.9813 C.ar    1  UNL11      -0.0570
     19 C          -4.2760   -3.6997    2.2788 C.ar    1  UNL11      -0.0601
     20 C          -5.3147   -3.5443    1.4154 C.ar    1  UNL11      -0.0434
     21 C          -5.1012   -2.8213    0.2470 C.ar    1  UNL11       0.0413
     22 CL         -6.4431   -2.6208   -0.8691 Cl      1  UNL11      -0.0835
     23 C          -3.8716   -2.2684   -0.0447 C.ar    1  UNL11      -0.0387
     24 H           0.4348   -2.3909   -0.8688 H       1  UNL11       0.0424
     25 H           1.3538   -1.3641   -1.9767 H       1  UNL11       0.0424
     26 H           4.6758    0.5179    0.5918 H       1  UNL11       0.4829
     27 H           3.4504   -1.9834    4.3361 H       1  UNL11       0.0627
     28 H           1.5864   -3.4594    4.8047 H       1  UNL11       0.0618
     29 H          -0.1315   -3.8510    3.0667 H       1  UNL11       0.0618
     30 H           0.0251   -2.7630    0.8649 H       1  UNL11       0.0624
     31 H          -2.1817    0.0120   -0.0656 H       1  UNL11       0.1490
     32 H          -1.0310   -1.7360    1.6577 H       1  UNL11       0.0512
     33 H          -0.8157   -2.6504    0.1181 H       1  UNL11       0.0512
     34 H          -2.2637   -3.2988    2.6996 H       1  UNL11       0.0621
     35 H          -4.4064   -4.2622    3.2085 H       1  UNL11       0.0618
     36 H          -6.2739   -3.9834    1.6562 H       1  UNL11       0.0632
     37 H          -3.7082   -1.7126   -0.9436 H       1  UNL11       0.0635
@<TRIPOS>BOND
     1     1     2    2
     2     2     3    1
     3     2    15   am
     4     3     4    1
     5     3    24    1
     6     3    25    1
     7     4     5    2
     8     5     6    1
     9     6     7   am
    10     6    26    1
    11     7     8    2
    12     7     9    1
    13     9    10   ar
    14    10    11   ar
    15    10    27    1
    16    11    12   ar
    17    11    28    1
    18    12    13   ar
    19    12    29    1
    20    13    14   ar
    21    13    30    1
    22    14     4    1
    23    14     9   ar
    24    15    16    1
    25    15    31    1
    26    16    17    1
    27    16    32    1
    28    16    33    1
    29    17    18   ar
    30    18    19   ar
    31    18    34    1
    32    19    20   ar
    33    19    35    1
    34    20    21   ar
    35    20    36    1
    36    21    22    1
    37    21    23   ar
    38    23    17   ar
    39    23    37    1
@<TRIPOS>MOLECULE
*****
 37 39 0 0 0
SMALL
GASTEIGER

@<TRIPOS>ATOM
      1 O          -0.0039    0.7418   -0.4258 O.2     1  UNL11      -0.2754
      2 C          -0.2340   -0.4035   -0.8823 C.2     1  UNL11       0.2193
      3 C           0.8792   -1.3689   -0.9523 C.3     1  UNL11       0.0725
      4 C           1.8971   -1.1513    0.1033 C.2     1  UNL11       0.1237
      5 N           2.9454   -0.3382   -0.1235 N.2     1  UNL11      -0.0071
      6 N           3.8786   -0.1183    0.8048 N.am    1  UNL11      -0.0356
      7 C           3.8503   -0.6816    2.0246 C.2     1  UNL11       0.4383
      8 O           4.7394   -0.4651    2.8928 O.2     1  UNL11      -0.2116
      9 C           2.8006   -1.5257    2.3189 C.ar    1  UNL11       0.1004
     10 C           2.7186   -2.1336    3.5563 C.ar    1  UNL11      -0.0441
     11 C           1.6558   -2.9755    3.8253 C.ar    1  UNL11      -0.0608
     12 C           0.7076   -3.1801    2.8402 C.ar    1  UNL11      -0.0611
     13 C           0.7809   -2.5765    1.5989 C.ar    1  UNL11      -0.0518
     14 C           1.8265   -1.7492    1.3365 C.ar    1  UNL11       0.0194
     15 N          -1.5338   -0.7582   -1.3197 N.am    1  UNL11      -0.3109
     16 C          -1.7782   -2.0685   -1.8213 C.3     1  UNL11       0.0369
     17 C          -2.7774   -2.8448   -1.0880 C.ar    1  UNL11      -0.0289
     18 C          -2.6143   -4.2240   -1.0714 C.ar    1  UNL11      -0.0570
     19 C          -3.4785   -5.0695   -0.4216 C.ar    1  UNL11      -0.0601
     20 C          -4.5493   -4.5586    0.2424 C.ar    1  UNL11      -0.0434
     21 C          -4.7332   -3.1803    0.2396 C.ar    1  UNL11       0.0413
     22 CL         -6.1171   -2.5198    1.0971 Cl      1  UNL11      -0.0835
     23 C          -3.8600   -2.3373   -0.4158 C.ar    1  UNL11      -0.0387
     24 H           0.4348   -2.3909   -0.8688 H       1  UNL11       0.0424
     25 H           1.3538   -1.3641   -1.9767 H       1  UNL11       0.0424
     26 H           4.6758    0.5179    0.5918 H       1  UNL11       0.4829
     27 H           3.4504   -1.9834    4.3361 H       1  UNL11       0.0627
     28 H           1.5864   -3.4594    4.8047 H       1  UNL11       0.0618
     29 H          -0.1315   -3.8510    3.0667 H       1  UNL11       0.0618
     30 H           0.0251   -2.7630    0.8649 H       1  UNL11       0.0624
     31 H          -2.3221   -0.0620   -1.2777 H       1  UNL11       0.1490
     32 H          -0.8243   -2.6588   -1.8056 H       1  UNL11       0.0512
     33 H          -2.0768   -1.9693   -2.9049 H       1  UNL11       0.0512
     34 H          -1.7801   -4.6799   -1.5837 H       1  UNL11       0.0621
     35 H          -3.3012   -6.1493   -0.4413 H       1  UNL11       0.0618
     36 H          -5.2266   -5.2310    0.7522 H       1  UNL11       0.0632
     37 H          -4.0022   -1.2774   -0.4176 H       1  UNL11       0.0635
@<TRIPOS>BOND
     1     1     2    2
     2     2     3    1
     3     2    15   am
     4     3     4    1
     5     3    24    1
     6     3    25    1
     7     4     5    2
     8     5     6    1
     9     6     7   am
    10     6    26    1
    11     7     8    2
    12     7     9    1
    13     9    10   ar
    14    10    11   ar
    15    10    27    1
    16    11    12   ar
    17    11    28    1
    18    12    13   ar
    19    12    29    1
    20    13    14   ar
    21    13    30    1
    22    14     4    1
    23    14     9   ar
    24    15    16    1
    25    15    31    1
    26    16    17    1
    27    16    32    1
    28    16    33    1
    29    17    18   ar
    30    18    19   ar
    31    18    34    1
    32    19    20   ar
    33    19    35    1
    34    20    21   ar
    35    20    36    1
    36    21    22    1
    37    21    23   ar
    38    23    17   ar
    39    23    37    1
@<TRIPOS>MOLECULE
*****
 37 39 0 0 0
SMALL
GASTEIGER

@<TRIPOS>ATOM
      1 O          -1.3961   -0.8429   -0.7106 O.2     1  UNL11      -0.2754
      2 C          -0.2340   -0.4035   -0.8823 C.2     1  UNL11       0.2193
      3 C           0.8792   -1.3689   -0.9523 C.3     1  UNL11       0.0725
      4 C           1.8971   -1.1513    0.1033 C.2     1  UNL11       0.1237
      5 N           1.5559   -1.2398    1.4022 N.2     1  UNL11      -0.0071
      6 N           2.4469   -1.0519    2.3778 N.am    1  UNL11      -0.0356
      7 C           3.7392   -0.7631    2.1486 C.2     1  UNL11       0.4383
      8 O           4.5710   -0.5878    3.0805 O.2     1  UNL11      -0.2116
      9 C           4.1519   -0.6587    0.8372 C.ar    1  UNL11       0.1004
     10 C           5.4681   -0.3637    0.5402 C.ar    1  UNL11      -0.0441
     11 C           5.8553   -0.2646   -0.7830 C.ar    1  UNL11      -0.0608
     12 C           4.9057   -0.4655   -1.7675 C.ar    1  UNL11      -0.0611
     13 C           3.5863   -0.7610   -1.4805 C.ar    1  UNL11      -0.0518
     14 C           3.2077   -0.8579   -0.1790 C.ar    1  UNL11       0.0194
     15 N           0.0003    0.9881   -1.0056 N.am    1  UNL11      -0.3109
     16 C           1.3255    1.4663   -1.2149 C.3     1  UNL11       0.0369
     17 C           2.2903    1.1173   -0.1728 C.ar    1  UNL11      -0.0289
     18 C           3.6126    0.9590   -0.5672 C.ar    1  UNL11      -0.0570
     19 C           4.6180    0.6321    0.3080 C.ar    1  UNL11      -0.0601
     20 C           4.3324    0.4499    1.6247 C.ar    1  UNL11      -0.0434
     21 C           3.0153    0.6030    2.0432 C.ar    1  UNL11       0.0413
     22 CL          2.6457    0.3671    3.7445 Cl      1  UNL11      -0.0835
     23 C           2.0105    0.9318    1.1572 C.ar    1  UNL11      -0.0387
     24 H           0.4348   -2.3909   -0.8688 H       1  UNL11       0.0424
     25 H           1.3538   -1.3641   -1.9767 H       1  UNL11       0.0424
     26 H           2.1446   -1.1286    3.3720 H       1  UNL11       0.4829
     27 H           6.2215   -0.2049    1.2973 H       1  UNL11       0.0627
     28 H           6.8974   -0.0311   -1.0233 H       1  UNL11       0.0618
     29 H           5.2263   -0.3840   -2.8144 H       1  UNL11       0.0618
     30 H           2.8835   -0.9086   -2.2737 H       1  UNL11       0.0624
     31 H          -0.7961    1.6734   -0.9440 H       1  UNL11       0.1490
     32 H           1.3114    2.5855   -1.2909 H       1  UNL11       0.0512
     33 H           1.6736    1.0805   -2.2164 H       1  UNL11       0.0512
     34 H           3.8918    1.0925   -1.6019 H       1  UNL11       0.0621
     35 H           5.6433    0.5202   -0.0582 H       1  UNL11       0.0618
     36 H           5.1300    0.1920    2.3090 H       1  UNL11       0.0632
     37 H           0.9976    1.0492    1.4798 H       1  UNL11       0.0635
@<TRIPOS>BOND
     1     1     2    2
     2     2     3    1
     3     2    15   am
     4     3     4    1
     5     3    24    1
     6     3    25    1
     7     4     5    2
     8     5     6    1
     9     6     7   am
    10     6    26    1
    11     7     8    2
    12     7     9    1
    13     9    10   ar
    14    10    11   ar
    15    10    27    1
    16    11    12   ar
    17    11    28    1
    18    12    13   ar
    19    12    29    1
    20    13    14   ar
    21    13    30    1
    22    14     4    1
    23    14     9   ar
    24    15    16    1
    25    15    31    1
    26    16    17    1
    27    16    32    1
    28    16    33    1
    29    17    18   ar
    30    18    19   ar
    31    18    34    1
    32    19    20   ar
    33    19    35    1
    34    20    21   ar
    35    20    36    1
    36    21    22    1
    37    21    23   ar
    38    23    17   ar
    39    23    37    1
@<TRIPOS>MOLECULE
*****
 37 39 0 0 0
SMALL
GASTEIGER

@<TRIPOS>ATOM
      1 O          -0.4447    0.3383   -1.8714 O.2     1  UNL11      -0.2754
      2 C          -0.2340   -0.4035   -0.8823 C.2     1  UNL11       0.2193
      3 C           0.8792   -1.3689   -0.9523 C.3     1  UNL11       0.0725
      4 C           1.8971   -1.1513    0.1033 C.2     1  UNL11       0.1237
      5 N           1.5559   -1.2398    1.4022 N.2     1  UNL11      -0.0071
      6 N           2.4469   -1.0519    2.3778 N.am    1  UNL11      -0.0356
      7 C           3.7392   -0.7631    2.1486 C.2     1  UNL11       0.4383
      8 O           4.5710   -0.5878    3.0805 O.2     1  UNL11      -0.2116
      9 C           4.1519   -0.6587    0.8372 C.ar    1  UNL11       0.1004
     10 C           5.4681   -0.3637    0.5402 C.ar    1  UNL11      -0.0441
     11 C           5.8553   -0.2646   -0.7830 C.ar    1  UNL11      -0.0608
     12 C           4.9057   -0.4655   -1.7675 C.ar    1  UNL11      -0.0611
     13 C           3.5863   -0.7610   -1.4805 C.ar    1  UNL11      -0.0518
     14 C           3.2077   -0.8579   -0.1790 C.ar    1  UNL11       0.0194
     15 N          -1.0481   -0.3137    0.2734 N.am    1  UNL11      -0.3109
     16 C          -0.7835   -1.1546    1.3920 C.3     1  UNL11       0.0369
     17 C          -0.1850   -2.4507    1.0748 C.ar    1  UNL11      -0.0289
     18 C           0.6555   -3.0063    2.0309 C.ar    1  UNL11      -0.0570
     19 C           1.2817   -4.2158    1.8611 C.ar    1  UNL11      -0.0601
     20 C           1.0868   -4.9204    0.7148 C.ar    1  UNL11      -0.0434
     21 C           0.2494   -4.3841   -0.2570 C.ar    1  UNL11       0.0413
     22 CL         -0.0023   -5.2941   -1.7386 Cl      1  UNL11      -0.0835
     23 C          -0.3764   -3.1679   -0.0787 C.ar    1  UNL11      -0.0387
     24 H           0.4348   -2.3909   -0.8688 H       1  UNL11       0.0424
     25 H           1.3538   -1.3641   -1.9767 H       1  UNL11       0.0424
     26 H           2.1446   -1.1286    3.3720 H       1  UNL11       0.4829
     27 H           6.2215   -0.2049    1.2973 H       1  UNL11       0.0627
     28 H           6.8974   -0.0311   -1.0233 H       1  UNL11       0.0618
     29 H           5.2263   -0.3840   -2.8144 H       1  UNL11       0.0618
     30 H           2.8835   -0.9086   -2.2737 H       1  UNL11       0.0624
     31 H          -1.8480    0.3693    0.3140 H       1  UNL11       0.1490
     32 H          -1.7403   -1.3580    1.9415 H       1  UNL11       0.0512
     33 H          -0.1210   -0.5802    2.1021 H       1  UNL11       0.0512
     34 H           0.8435   -2.4866    2.9586 H       1  UNL11       0.0621
     35 H           1.9338   -4.6062    2.6485 H       1  UNL11       0.0618
     36 H           1.5839   -5.8731    0.5876 H       1  UNL11       0.0632
     37 H          -1.0203   -2.7560   -0.8267 H       1  UNL11       0.0635
@<TRIPOS>BOND
     1     1     2    2
     2     2     3    1
     3     2    15   am
     4     3     4    1
     5     3    24    1
     6     3    25    1
     7     4     5    2
     8     5     6    1
     9     6     7   am
    10     6    26    1
    11     7     8    2
    12     7     9    1
    13     9    10   ar
    14    10    11   ar
    15    10    27    1
    16    11    12   ar
    17    11    28    1
    18    12    13   ar
    19    12    29    1
    20    13    14   ar
    21    13    30    1
    22    14     4    1
    23    14     9   ar
    24    15    16    1
    25    15    31    1
    26    16    17    1
    27    16    32    1
    28    16    33    1
    29    17    18   ar
    30    18    19   ar
    31    18    34    1
    32    19    20   ar
    33    19    35    1
    34    20    21   ar
    35    20    36    1
    36    21    22    1
    37    21    23   ar
    38    23    17   ar
    39    23    37    1
@<TRIPOS>MOLECULE
*****
 37 39 0 0 0
SMALL
GASTEIGER

@<TRIPOS>ATOM
      1 O          -0.1385    0.6665   -1.5295 O.2     1  UNL11      -0.2754
      2 C          -0.2340   -0.4035   -0.8823 C.2     1  UNL11       0.2193
      3 C           0.8792   -1.3689   -0.9523 C.3     1  UNL11       0.0725
      4 C           1.8971   -1.1513    0.1033 C.2     1  UNL11       0.1237
      5 N           3.1719   -0.8779   -0.2307 N.2     1  UNL11      -0.0071
      6 N           4.1129   -0.6746    0.6935 N.am    1  UNL11      -0.0356
      7 C           3.8703   -0.7251    2.0143 C.2     1  UNL11       0.4383
      8 O           4.7695   -0.5310    2.8773 O.2     1  UNL11      -0.2116
      9 C           2.5823   -1.0012    2.4214 C.ar    1  UNL11       0.1004
     10 C           2.2731   -1.0662    3.7659 C.ar    1  UNL11      -0.0441
     11 C           0.9739   -1.3450    4.1467 C.ar    1  UNL11      -0.0608
     12 C           0.0250   -1.5499    3.1624 C.ar    1  UNL11      -0.0611
     13 C           0.3245   -1.4871    1.8145 C.ar    1  UNL11      -0.0518
     14 C           1.6023   -1.2130    1.4422 C.ar    1  UNL11       0.0194
     15 N          -1.3855   -0.6754   -0.1034 N.am    1  UNL11      -0.3109
     16 C          -1.4685   -1.8897    0.6362 C.3     1  UNL11       0.0369
     17 C          -0.3120   -2.7769    0.5175 C.ar    1  UNL11      -0.0289
     18 C           0.3985   -2.7279   -0.6750 C.ar    1  UNL11      -0.0570
     19 C           1.5026   -3.5064   -0.9178 C.ar    1  UNL11      -0.0601
     20 C           1.9398   -4.3716    0.0354 C.ar    1  UNL11      -0.0434
     21 C           1.2443   -4.4381    1.2375 C.ar    1  UNL11       0.0413
     22 CL          1.8088   -5.5564    2.4693 Cl      1  UNL11      -0.0835
     23 C           0.1356   -3.6523    1.4739 C.ar    1  UNL11      -0.0387
     24 H           0.4348   -2.3909   -0.8688 H       1  UNL11       0.0424
     25 H           1.3538   -1.3641   -1.9767 H       1  UNL11       0.0424
     26 H           5.0893   -0.4654    0.3957 H       1  UNL11       0.4829
     27 H           3.0024   -0.9079    4.5464 H       1  UNL11       0.0627
     28 H           0.7241   -1.3974    5.2112 H       1  UNL11       0.0618
     29 H          -1.0031   -1.7704    3.4783 H       1  UNL11       0.0618
     30 H          -0.4409   -1.6528    1.0853 H       1  UNL11       0.0624
     31 H          -2.1817    0.0120   -0.0656 H       1  UNL11       0.1490
     32 H          -2.3672   -2.4713    0.3003 H       1  UNL11       0.0512
     33 H          -1.6461   -1.6198    1.7173 H       1  UNL11       0.0512
     34 H           0.0922   -2.0575   -1.4643 H       1  UNL11       0.0621
     35 H           2.0247   -3.4264   -1.8764 H       1  UNL11       0.0618
     36 H           2.8107   -4.9824   -0.1630 H       1  UNL11       0.0632
     37 H          -0.3989   -3.7041    2.3987 H       1  UNL11       0.0635
@<TRIPOS>BOND
     1     1     2    2
     2     2     3    1
     3     2    15   am
     4     3     4    1
     5     3    24    1
     6     3    25    1
     7     4     5    2
     8     5     6    1
     9     6     7   am
    10     6    26    1
    11     7     8    2
    12     7     9    1
    13     9    10   ar
    14    10    11   ar
    15    10    27    1
    16    11    12   ar
    17    11    28    1
    18    12    13   ar
    19    12    29    1
    20    13    14   ar
    21    13    30    1
    22    14     4    1
    23    14     9   ar
    24    15    16    1
    25    15    31    1
    26    16    17    1
    27    16    32    1
    28    16    33    1
    29    17    18   ar
    30    18    19   ar
    31    18    34    1
    32    19    20   ar
    33    19    35    1
    34    20    21   ar
    35    20    36    1
    36    21    22    1
    37    21    23   ar
    38    23    17   ar
    39    23    37    1
@<TRIPOS>MOLECULE
*****
 37 39 0 0 0
SMALL
GASTEIGER

@<TRIPOS>ATOM
      1 O          -0.9166   -0.3539    0.1686 O.2     1  UNL11      -0.2754
      2 C          -0.2340   -0.4035   -0.8823 C.2     1  UNL11       0.2193
      3 C           0.8792   -1.3689   -0.9523 C.3     1  UNL11       0.0725
      4 C           1.8971   -1.1513    0.1033 C.2     1  UNL11       0.1237
      5 N           1.5559   -1.2398    1.4022 N.2     1  UNL11      -0.0071
      6 N           2.4469   -1.0519    2.3778 N.am    1  UNL11      -0.0356
      7 C           3.7392   -0.7631    2.1486 C.2     1  UNL11       0.4383
      8 O           4.5710   -0.5878    3.0805 O.2     1  UNL11      -0.2116
      9 C           4.1519   -0.6587    0.8372 C.ar    1  UNL11       0.1004
     10 C           5.4681   -0.3637    0.5402 C.ar    1  UNL11      -0.0441
     11 C           5.8553   -0.2646   -0.7830 C.ar    1  UNL11      -0.0608
     12 C           4.9057   -0.4655   -1.7675 C.ar    1  UNL11      -0.0611
     13 C           3.5863   -0.7610   -1.4805 C.ar    1  UNL11      -0.0518
     14 C           3.2077   -0.8579   -0.1790 C.ar    1  UNL11       0.0194
     15 N          -0.5279    0.4492   -1.9746 N.am    1  UNL11      -0.3109
     16 C           0.2499    0.3674   -3.1649 C.3     1  UNL11       0.0369
     17 C           0.9498    1.5946   -3.5426 C.ar    1  UNL11      -0.0289
     18 C           0.7836    2.6948   -2.7113 C.ar    1  UNL11      -0.0570
     19 C           1.3828    3.9066   -2.9490 C.ar    1  UNL11      -0.0601
     20 C           2.1788    4.0621   -4.0401 C.ar    1  UNL11      -0.0434
     21 C           2.3601    2.9744   -4.8871 C.ar    1  UNL11       0.0413
     22 CL          3.3883    3.1751   -6.2974 Cl      1  UNL11      -0.0835
     23 C           1.7545    1.7598   -4.6411 C.ar    1  UNL11      -0.0387
     24 H           0.4348   -2.3909   -0.8688 H       1  UNL11       0.0424
     25 H           1.3538   -1.3641   -1.9767 H       1  UNL11       0.0424
     26 H           2.1446   -1.1286    3.3720 H       1  UNL11       0.4829
     27 H           6.2215   -0.2049    1.2973 H       1  UNL11       0.0627
     28 H           6.8974   -0.0311   -1.0233 H       1  UNL11       0.0618
     29 H           5.2263   -0.3840   -2.8144 H       1  UNL11       0.0618
     30 H           2.8835   -0.9086   -2.2737 H       1  UNL11       0.0624
     31 H          -1.3164    1.1439   -1.9154 H       1  UNL11       0.1490
     32 H          -0.4124    0.0862   -4.0257 H       1  UNL11       0.0512
     33 H           0.9849   -0.4789   -3.0351 H       1  UNL11       0.0512
     34 H           0.1611    2.6236   -1.8317 H       1  UNL11       0.0621
     35 H           1.2168    4.7403   -2.2597 H       1  UNL11       0.0618
     36 H           2.6477    5.0203   -4.2215 H       1  UNL11       0.0632
     37 H           1.8942    0.9237   -5.2931 H       1  UNL11       0.0635
@<TRIPOS>BOND
     1     1     2    2
     2     2     3    1
     3     2    15   am
     4     3     4    1
     5     3    24    1
     6     3    25    1
     7     4     5    2
     8     5     6    1
     9     6     7   am
    10     6    26    1
    11     7     8    2
    12     7     9    1
    13     9    10   ar
    14    10    11   ar
    15    10    27    1
    16    11    12   ar
    17    11    28    1
    18    12    13   ar
    19    12    29    1
    20    13    14   ar
    21    13    30    1
    22    14     4    1
    23    14     9   ar
    24    15    16    1
    25    15    31    1
    26    16    17    1
    27    16    32    1
    28    16    33    1
    29    17    18   ar
    30    18    19   ar
    31    18    34    1
    32    19    20   ar
    33    19    35    1
    34    20    21   ar
    35    20    36    1
    36    21    22    1
    37    21    23   ar
    38    23    17   ar
    39    23    37    1
@<TRIPOS>MOLECULE
*****
 37 39 0 0 0
SMALL
GASTEIGER

@<TRIPOS>ATOM
      1 O          -0.9166   -0.3539    0.1686 O.2     1  UNL11      -0.2754
      2 C          -0.2340   -0.4035   -0.8823 C.2     1  UNL11       0.2193
      3 C           0.8792   -1.3689   -0.9523 C.3     1  UNL11       0.0725
      4 C           1.8971   -1.1513    0.1033 C.2     1  UNL11       0.1237
      5 N           2.9853   -1.9406    0.1684 N.2     1  UNL11      -0.0071
      6 N           3.9219   -1.7715    1.1038 N.am    1  UNL11      -0.0356
      7 C           3.8579   -0.8140    2.0446 C.2     1  UNL11       0.4383
      8 O           4.7505   -0.6653    2.9234 O.2     1  UNL11      -0.2116
      9 C           2.7664    0.0283    2.0316 C.ar    1  UNL11       0.1004
     10 C           2.6462    1.0309    2.9738 C.ar    1  UNL11      -0.0441
     11 C           1.5417    1.8613    2.9383 C.ar    1  UNL11      -0.0608
     12 C           0.5914    1.6572    1.9551 C.ar    1  UNL11      -0.0611
     13 C           0.7025    0.6566    1.0080 C.ar    1  UNL11      -0.0518
     14 C           1.7891   -0.1586    1.0447 C.ar    1  UNL11       0.0194
     15 N          -0.5279    0.4492   -1.9746 N.am    1  UNL11      -0.3109
     16 C          -1.6086    1.3720   -1.8805 C.3     1  UNL11       0.0369
     17 C          -1.4476    2.6071   -2.6468 C.ar    1  UNL11      -0.0289
     18 C          -1.9270    2.6056   -3.9504 C.ar    1  UNL11      -0.0570
     19 C          -1.8400    3.6968   -4.7784 C.ar    1  UNL11      -0.0601
     20 C          -1.2632    4.8417   -4.3258 C.ar    1  UNL11      -0.0434
     21 C          -0.7758    4.8670   -3.0238 C.ar    1  UNL11       0.0413
     22 CL         -0.0299    6.3462   -2.4388 Cl      1  UNL11      -0.0835
     23 C          -0.8672    3.7660   -2.1979 C.ar    1  UNL11      -0.0387
     24 H           0.4348   -2.3909   -0.8688 H       1  UNL11       0.0424
     25 H           1.3538   -1.3641   -1.9767 H       1  UNL11       0.0424
     26 H           4.7504   -2.4031    1.1219 H       1  UNL11       0.4829
     27 H           3.3799    1.2036    3.7471 H       1  UNL11       0.0627
     28 H           1.4422    2.6574    3.6829 H       1  UNL11       0.0618
     29 H          -0.2810    2.3236    1.9380 H       1  UNL11       0.0618
     30 H          -0.0569    0.5333    0.2644 H       1  UNL11       0.0624
     31 H           0.0452    0.4077   -2.8564 H       1  UNL11       0.1490
     32 H          -1.7574    1.6655   -0.8079 H       1  UNL11       0.0512
     33 H          -2.5471    0.8326   -2.1992 H       1  UNL11       0.0512
     34 H          -2.3936    1.7211   -4.3579 H       1  UNL11       0.0621
     35 H          -2.2351    3.6396   -5.7974 H       1  UNL11       0.0618
     36 H          -1.1977    5.6980   -4.9842 H       1  UNL11       0.0632
     37 H          -0.4919    3.7862   -1.1966 H       1  UNL11       0.0635
@<TRIPOS>BOND
     1     1     2    2
     2     2     3    1
     3     2    15   am
     4     3     4    1
     5     3    24    1
     6     3    25    1
     7     4     5    2
     8     5     6    1
     9     6     7   am
    10     6    26    1
    11     7     8    2
    12     7     9    1
    13     9    10   ar
    14    10    11   ar
    15    10    27    1
    16    11    12   ar
    17    11    28    1
    18    12    13   ar
    19    12    29    1
    20    13    14   ar
    21    13    30    1
    22    14     4    1
    23    14     9   ar
    24    15    16    1
    25    15    31    1
    26    16    17    1
    27    16    32    1
    28    16    33    1
    29    17    18   ar
    30    18    19   ar
    31    18    34    1
    32    19    20   ar
    33    19    35    1
    34    20    21   ar
    35    20    36    1
    36    21    22    1
    37    21    23   ar
    38    23    17   ar
    39    23    37    1
@<TRIPOS>MOLECULE
*****
 37 39 0 0 0
SMALL
GASTEIGER

@<TRIPOS>ATOM
      1 O          -0.9166   -0.3539    0.1686 O.2     1  UNL11      -0.2754
      2 C          -0.2340   -0.4035   -0.8823 C.2     1  UNL11       0.2193
      3 C           0.8792   -1.3689   -0.9523 C.3     1  UNL11       0.0725
      4 C           1.8971   -1.1513    0.1033 C.2     1  UNL11       0.1237
      5 N           1.7870   -1.7765    1.2900 N.2     1  UNL11      -0.0071
      6 N           2.6859   -1.6051    2.2614 N.am    1  UNL11      -0.0356
      7 C           3.7595   -0.8064    2.1379 C.2     1  UNL11       0.4383
      8 O           4.6016   -0.6533    3.0644 O.2     1  UNL11      -0.2116
      9 C           3.9291   -0.1370    0.9445 C.ar    1  UNL11       0.1004
     10 C           5.0136    0.6979    0.7595 C.ar    1  UNL11      -0.0441
     11 C           5.1597    1.3571   -0.4466 C.ar    1  UNL11      -0.0608
     12 C           4.2094    1.1558   -1.4304 C.ar    1  UNL11      -0.0611
     13 C           3.1207    0.3225   -1.2549 C.ar    1  UNL11      -0.0518
     14 C           2.9790   -0.3246   -0.0684 C.ar    1  UNL11       0.0194
     15 N          -0.5279    0.4492   -1.9746 N.am    1  UNL11      -0.3109
     16 C           0.2499    0.3674   -3.1649 C.3     1  UNL11       0.0369
     17 C           0.8134   -0.9501   -3.4567 C.ar    1  UNL11      -0.0289
     18 C           0.5339   -1.9679   -2.5539 C.ar    1  UNL11      -0.0570
     19 C           0.9997   -3.2498   -2.7073 C.ar    1  UNL11      -0.0601
     20 C           1.7709   -3.5623   -3.7824 C.ar    1  UNL11      -0.0434
     21 C           2.0642   -2.5596   -4.7000 C.ar    1  UNL11       0.0413
     22 CL          3.0613   -2.9629   -6.0891 Cl      1  UNL11      -0.0835
     23 C           1.5921   -1.2736   -4.5387 C.ar    1  UNL11      -0.0387
     24 H           0.4348   -2.3909   -0.8688 H       1  UNL11       0.0424
     25 H           1.3538   -1.3641   -1.9767 H       1  UNL11       0.0424
     26 H           2.5663   -2.1066    3.1669 H       1  UNL11       0.4829
     27 H           5.7645    0.8649    1.5175 H       1  UNL11       0.0627
     28 H           6.0177    2.0198   -0.5978 H       1  UNL11       0.0618
     29 H           4.3372    1.6853   -2.3836 H       1  UNL11       0.0618
     30 H           2.4082    0.1955   -2.0430 H       1  UNL11       0.0624
     31 H          -1.3164    1.1439   -1.9154 H       1  UNL11       0.1490
     32 H           1.1080    1.0873   -3.1010 H       1  UNL11       0.0512
     33 H          -0.3980    0.7149   -4.0208 H       1  UNL11       0.0512
     34 H          -0.0742   -1.7716   -1.6832 H       1  UNL11       0.0621
     35 H           0.7479   -4.0129   -1.9642 H       1  UNL11       0.0618
     36 H           2.1350   -4.5749   -3.8968 H       1  UNL11       0.0632
     37 H           1.8182   -0.5029   -5.2447 H       1  UNL11       0.0635
@<TRIPOS>BOND
     1     1     2    2
     2     2     3    1
     3     2    15   am
     4     3     4    1
     5     3    24    1
     6     3    25    1
     7     4     5    2
     8     5     6    1
     9     6     7   am
    10     6    26    1
    11     7     8    2
    12     7     9    1
    13     9    10   ar
    14    10    11   ar
    15    10    27    1
    16    11    12   ar
    17    11    28    1
    18    12    13   ar
    19    12    29    1
    20    13    14   ar
    21    13    30    1
    22    14     4    1
    23    14     9   ar
    24    15    16    1
    25    15    31    1
    26    16    17    1
    27    16    32    1
    28    16    33    1
    29    17    18   ar
    30    18    19   ar
    31    18    34    1
    32    19    20   ar
    33    19    35    1
    34    20    21   ar
    35    20    36    1
    36    21    22    1
    37    21    23   ar
    38    23    17   ar
    39    23    37    1
@<TRIPOS>MOLECULE
*****
 37 39 0 0 0
SMALL
GASTEIGER

@<TRIPOS>ATOM
      1 O          -0.9166   -0.3539    0.1686 O.2     1  UNL11      -0.2754
      2 C          -0.2340   -0.4035   -0.8823 C.2     1  UNL11       0.2193
      3 C           0.8792   -1.3689   -0.9523 C.3     1  UNL11       0.0725
      4 C           1.8971   -1.1513    0.1033 C.2     1  UNL11       0.1237
      5 N           2.6011   -2.1899    0.5902 N.2     1  UNL11      -0.0071
      6 N           3.5260   -2.0296    1.5388 N.am    1  UNL11      -0.0356
      7 C           3.8272   -0.8365    2.0789 C.2     1  UNL11       0.4383
      8 O           4.7039   -0.6993    2.9753 O.2     1  UNL11      -0.2116
      9 C           3.1400    0.2680    1.6219 C.ar    1  UNL11       0.1004
     10 C           3.4064    1.5203    2.1398 C.ar    1  UNL11      -0.0441
     11 C           2.7029    2.6109    1.6641 C.ar    1  UNL11      -0.0608
     12 C           1.7522    2.4078    0.6811 C.ar    1  UNL11      -0.0611
     13 C           1.4782    1.1586    0.1565 C.ar    1  UNL11      -0.0518
     14 C           2.1710    0.0878    0.6256 C.ar    1  UNL11       0.0194
     15 N          -0.5279    0.4492   -1.9746 N.am    1  UNL11      -0.3109
     16 C           0.2499    0.3674   -3.1649 C.3     1  UNL11       0.0369
     17 C           1.6807    0.6193   -2.9979 C.ar    1  UNL11      -0.0289
     18 C           2.5459   -0.4073   -3.3541 C.ar    1  UNL11      -0.0570
     19 C           3.9104   -0.3035   -3.2476 C.ar    1  UNL11      -0.0601
     20 C           4.4639    0.8449   -2.7753 C.ar    1  UNL11      -0.0434
     21 C           3.6175    1.8867   -2.4123 C.ar    1  UNL11       0.0413
     22 CL          4.3325    3.3706   -1.8013 Cl      1  UNL11      -0.0835
     23 C           2.2471    1.7745   -2.5224 C.ar    1  UNL11      -0.0387
     24 H           0.4348   -2.3909   -0.8688 H       1  UNL11       0.0424
     25 H           1.3538   -1.3641   -1.9767 H       1  UNL11       0.0424
     26 H           4.0505   -2.8584    1.8907 H       1  UNL11       0.4829
     27 H           4.1461    1.6954    2.9069 H       1  UNL11       0.0627
     28 H           2.9107    3.6054    2.0714 H       1  UNL11       0.0618
     29 H           1.2005    3.2823    0.3119 H       1  UNL11       0.0618
     30 H           0.7335    1.0461   -0.6034 H       1  UNL11       0.0624
     31 H          -1.3164    1.1439   -1.9154 H       1  UNL11       0.1490
     32 H          -0.1317    1.1115   -3.9128 H       1  UNL11       0.0512
     33 H           0.0814   -0.6542   -3.6134 H       1  UNL11       0.0512
     34 H           2.1567   -1.3400   -3.7346 H       1  UNL11       0.0621
     35 H           4.5448   -1.1448   -3.5434 H       1  UNL11       0.0618
     36 H           5.5403    0.9196   -2.6937 H       1  UNL11       0.0632
     37 H           1.5968    2.5761   -2.2428 H       1  UNL11       0.0635
@<TRIPOS>BOND
     1     1     2    2
     2     2     3    1
     3     2    15   am
     4     3     4    1
     5     3    24    1
     6     3    25    1
     7     4     5    2
     8     5     6    1
     9     6     7   am
    10     6    26    1
    11     7     8    2
    12     7     9    1
    13     9    10   ar
    14    10    11   ar
    15    10    27    1
    16    11    12   ar
    17    11    28    1
    18    12    13   ar
    19    12    29    1
    20    13    14   ar
    21    13    30    1
    22    14     4    1
    23    14     9   ar
    24    15    16    1
    25    15    31    1
    26    16    17    1
    27    16    32    1
    28    16    33    1
    29    17    18   ar
    30    18    19   ar
    31    18    34    1
    32    19    20   ar
    33    19    35    1
    34    20    21   ar
    35    20    36    1
    36    21    22    1
    37    21    23   ar
    38    23    17   ar
    39    23    37    1
@<TRIPOS>MOLECULE
*****
 37 39 0 0 0
SMALL
GASTEIGER

@<TRIPOS>ATOM
      1 O          -0.0039    0.7418   -0.4258 O.2     1  UNL11      -0.2754
      2 C          -0.2340   -0.4035   -0.8823 C.2     1  UNL11       0.2193
      3 C           0.8792   -1.3689   -0.9523 C.3     1  UNL11       0.0725
      4 C           1.8971   -1.1513    0.1033 C.2     1  UNL11       0.1237
      5 N           2.6011   -2.1899    0.5902 N.2     1  UNL11      -0.0071
      6 N           3.5260   -2.0296    1.5388 N.am    1  UNL11      -0.0356
      7 C           3.8272   -0.8365    2.0789 C.2     1  UNL11       0.4383
      8 O           4.7039   -0.6993    2.9753 O.2     1  UNL11      -0.2116
      9 C           3.1400    0.2680    1.6219 C.ar    1  UNL11       0.1004
     10 C           3.4064    1.5203    2.1398 C.ar    1  UNL11      -0.0441
     11 C           2.7029    2.6109    1.6641 C.ar    1  UNL11      -0.0608
     12 C           1.7522    2.4078    0.6811 C.ar    1  UNL11      -0.0611
     13 C           1.4782    1.1586    0.1565 C.ar    1  UNL11      -0.0518
     14 C           2.1710    0.0878    0.6256 C.ar    1  UNL11       0.0194
     15 N          -1.5338   -0.7582   -1.3197 N.am    1  UNL11      -0.3109
     16 C          -1.7782   -2.0685   -1.8213 C.3     1  UNL11       0.0369
     17 C          -1.5955   -2.2326   -3.2629 C.ar    1  UNL11      -0.0289
     18 C          -1.1823   -3.4823   -3.7065 C.ar    1  UNL11      -0.0570
     19 C          -0.9730   -3.7718   -5.0317 C.ar    1  UNL11      -0.0601
     20 C          -1.1721   -2.8094   -5.9712 C.ar    1  UNL11      -0.0434
     21 C          -1.5859   -1.5503   -5.5509 C.ar    1  UNL11       0.0413
     22 CL         -1.8428   -0.3063   -6.7646 Cl      1  UNL11      -0.0835
     23 C          -1.7942   -1.2673   -4.2170 C.ar    1  UNL11      -0.0387
     24 H           0.4348   -2.3909   -0.8688 H       1  UNL11       0.0424
     25 H           1.3538   -1.3641   -1.9767 H       1  UNL11       0.0424
     26 H           4.0505   -2.8584    1.8907 H       1  UNL11       0.4829
     27 H           4.1461    1.6954    2.9069 H       1  UNL11       0.0627
     28 H           2.9107    3.6054    2.0714 H       1  UNL11       0.0618
     29 H           1.2005    3.2823    0.3119 H       1  UNL11       0.0618
     30 H           0.7335    1.0461   -0.6034 H       1  UNL11       0.0624
     31 H          -2.3221   -0.0620   -1.2777 H       1  UNL11       0.1490
     32 H          -2.8332   -2.3685   -1.5855 H       1  UNL11       0.0512
     33 H          -1.1082   -2.7804   -1.2578 H       1  UNL11       0.0512
     34 H          -1.0100   -4.2811   -3.0004 H       1  UNL11       0.0621
     35 H          -0.6474   -4.7747   -5.3248 H       1  UNL11       0.0618
     36 H          -1.0048   -3.0446   -7.0141 H       1  UNL11       0.0632
     37 H          -2.1123   -0.2986   -3.8945 H       1  UNL11       0.0635
@<TRIPOS>BOND
     1     1     2    2
     2     2     3    1
     3     2    15   am
     4     3     4    1
     5     3    24    1
     6     3    25    1
     7     4     5    2
     8     5     6    1
     9     6     7   am
    10     6    26    1
    11     7     8    2
    12     7     9    1
    13     9    10   ar
    14    10    11   ar
    15    10    27    1
    16    11    12   ar
    17    11    28    1
    18    12    13   ar
    19    12    29    1
    20    13    14   ar
    21    13    30    1
    22    14     4    1
    23    14     9   ar
    24    15    16    1
    25    15    31    1
    26    16    17    1
    27    16    32    1
    28    16    33    1
    29    17    18   ar
    30    18    19   ar
    31    18    34    1
    32    19    20   ar
    33    19    35    1
    34    20    21   ar
    35    20    36    1
    36    21    22    1
    37    21    23   ar
    38    23    17   ar
    39    23    37    1
@<TRIPOS>MOLECULE
*****
 37 39 0 0 0
SMALL
GASTEIGER

@<TRIPOS>ATOM
      1 O          -0.5473    0.0671    0.2372 O.2     1  UNL11      -0.2754
      2 C          -0.2340   -0.4035   -0.8823 C.2     1  UNL11       0.2193
      3 C           0.8792   -1.3689   -0.9523 C.3     1  UNL11       0.0725
      4 C           1.8971   -1.1513    0.1033 C.2     1  UNL11       0.1237
      5 N           2.9454   -0.3382   -0.1235 N.2     1  UNL11      -0.0071
      6 N           3.8786   -0.1183    0.8048 N.am    1  UNL11      -0.0356
      7 C           3.8503   -0.6816    2.0246 C.2     1  UNL11       0.4383
      8 O           4.7394   -0.4651    2.8928 O.2     1  UNL11      -0.2116
      9 C           2.8006   -1.5257    2.3189 C.ar    1  UNL11       0.1004
     10 C           2.7186   -2.1336    3.5563 C.ar    1  UNL11      -0.0441
     11 C           1.6558   -2.9755    3.8253 C.ar    1  UNL11      -0.0608
     12 C           0.7076   -3.1801    2.8402 C.ar    1  UNL11      -0.0611
     13 C           0.7809   -2.5765    1.5989 C.ar    1  UNL11      -0.0518
     14 C           1.8265   -1.7492    1.3365 C.ar    1  UNL11       0.0194
     15 N          -0.9349   -0.0146   -2.0502 N.am    1  UNL11      -0.3109
     16 C          -0.5735   -0.5715   -3.3103 C.3     1  UNL11       0.0369
     17 C          -0.0187   -1.9238   -3.2626 C.ar    1  UNL11      -0.0289
     18 C           0.9031   -2.2605   -4.2455 C.ar    1  UNL11      -0.0570
     19 C           1.4999   -3.4944   -4.3171 C.ar    1  UNL11      -0.0601
     20 C           1.1916   -4.4464   -3.3968 C.ar    1  UNL11      -0.0434
     21 C           0.2711   -4.1323   -2.4031 C.ar    1  UNL11       0.0413
     22 CL         -0.1279   -5.3625   -1.2139 Cl      1  UNL11      -0.0835
     23 C          -0.3242   -2.8897   -2.3379 C.ar    1  UNL11      -0.0387
     24 H           0.4348   -2.3909   -0.8688 H       1  UNL11       0.0424
     25 H           1.3538   -1.3641   -1.9767 H       1  UNL11       0.0424
     26 H           4.6758    0.5179    0.5918 H       1  UNL11       0.4829
     27 H           3.4504   -1.9834    4.3361 H       1  UNL11       0.0627
     28 H           1.5864   -3.4594    4.8047 H       1  UNL11       0.0618
     29 H          -0.1315   -3.8510    3.0667 H       1  UNL11       0.0618
     30 H           0.0251   -2.7630    0.8649 H       1  UNL11       0.0624
     31 H          -1.7213    0.6828   -1.9963 H       1  UNL11       0.1490
     32 H           0.1932    0.0832   -3.8024 H       1  UNL11       0.0512
     33 H          -1.4886   -0.5464   -3.9699 H       1  UNL11       0.0512
     34 H           1.1820   -1.5401   -5.0002 H       1  UNL11       0.0621
     35 H           2.2201   -3.7052   -5.1138 H       1  UNL11       0.0618
     36 H           1.6656   -5.4171   -3.4595 H       1  UNL11       0.0632
     37 H          -1.0322   -2.6490   -1.5734 H       1  UNL11       0.0635
@<TRIPOS>BOND
     1     1     2    2
     2     2     3    1
     3     2    15   am
     4     3     4    1
     5     3    24    1
     6     3    25    1
     7     4     5    2
     8     5     6    1
     9     6     7   am
    10     6    26    1
    11     7     8    2
    12     7     9    1
    13     9    10   ar
    14    10    11   ar
    15    10    27    1
    16    11    12   ar
    17    11    28    1
    18    12    13   ar
    19    12    29    1
    20    13    14   ar
    21    13    30    1
    22    14     4    1
    23    14     9   ar
    24    15    16    1
    25    15    31    1
    26    16    17    1
    27    16    32    1
    28    16    33    1
    29    17    18   ar
    30    18    19   ar
    31    18    34    1
    32    19    20   ar
    33    19    35    1
    34    20    21   ar
    35    20    36    1
    36    21    22    1
    37    21    23   ar
    38    23    17   ar
    39    23    37    1
@<TRIPOS>MOLECULE
*****
 37 39 0 0 0
SMALL
GASTEIGER

@<TRIPOS>ATOM
      1 O          -1.1626   -0.5006   -1.7197 O.2     1  UNL11      -0.2754
      2 C          -0.2340   -0.4035   -0.8823 C.2     1  UNL11       0.2193
      3 C           0.8792   -1.3689   -0.9523 C.3     1  UNL11       0.0725
      4 C           1.8971   -1.1513    0.1033 C.2     1  UNL11       0.1237
      5 N           3.1719   -0.8779   -0.2307 N.2     1  UNL11      -0.0071
      6 N           4.1129   -0.6746    0.6935 N.am    1  UNL11      -0.0356
      7 C           3.8703   -0.7251    2.0143 C.2     1  UNL11       0.4383
      8 O           4.7695   -0.5310    2.8773 O.2     1  UNL11      -0.2116
      9 C           2.5823   -1.0012    2.4214 C.ar    1  UNL11       0.1004
     10 C           2.2731   -1.0662    3.7659 C.ar    1  UNL11      -0.0441
     11 C           0.9739   -1.3450    4.1467 C.ar    1  UNL11      -0.0608
     12 C           0.0250   -1.5499    3.1624 C.ar    1  UNL11      -0.0611
     13 C           0.3245   -1.4871    1.8145 C.ar    1  UNL11      -0.0518
     14 C           1.6023   -1.2130    1.4422 C.ar    1  UNL11       0.0194
     15 N          -0.2570    0.6107    0.1064 N.am    1  UNL11      -0.3109
     16 C           0.8143    0.7134    1.0392 C.3     1  UNL11       0.0369
     17 C           1.0963    2.0638    1.5246 C.ar    1  UNL11      -0.0289
     18 C           0.9868    2.2761    2.8928 C.ar    1  UNL11      -0.0570
     19 C           1.2232    3.4940    3.4799 C.ar    1  UNL11      -0.0601
     20 C           1.5818    4.5551    2.7094 C.ar    1  UNL11      -0.0434
     21 C           1.6978    4.3666    1.3367 C.ar    1  UNL11       0.0413
     22 CL          2.1607    5.7378    0.3406 Cl      1  UNL11      -0.0835
     23 C           1.4586    3.1394    0.7543 C.ar    1  UNL11      -0.0387
     24 H           0.4348   -2.3909   -0.8688 H       1  UNL11       0.0424
     25 H           1.3538   -1.3641   -1.9767 H       1  UNL11       0.0424
     26 H           5.0893   -0.4654    0.3957 H       1  UNL11       0.4829
     27 H           3.0024   -0.9079    4.5464 H       1  UNL11       0.0627
     28 H           0.7241   -1.3974    5.2112 H       1  UNL11       0.0618
     29 H          -1.0031   -1.7704    3.4783 H       1  UNL11       0.0618
     30 H          -0.4409   -1.6528    1.0853 H       1  UNL11       0.0624
     31 H          -1.0591    1.2902    0.1587 H       1  UNL11       0.1490
     32 H           1.7572    0.3272    0.5698 H       1  UNL11       0.0512
     33 H           0.5813    0.0268    1.9039 H       1  UNL11       0.0512
     34 H           0.7047    1.4658    3.5487 H       1  UNL11       0.0621
     35 H           1.1221    3.6042    4.5641 H       1  UNL11       0.0618
     36 H           1.7664    5.5124    3.1790 H       1  UNL11       0.0632
     37 H           1.5479    2.9952   -0.3016 H       1  UNL11       0.0635
@<TRIPOS>BOND
     1     1     2    2
     2     2     3    1
     3     2    15   am
     4     3     4    1
     5     3    24    1
     6     3    25    1
     7     4     5    2
     8     5     6    1
     9     6     7   am
    10     6    26    1
    11     7     8    2
    12     7     9    1
    13     9    10   ar
    14    10    11   ar
    15    10    27    1
    16    11    12   ar
    17    11    28    1
    18    12    13   ar
    19    12    29    1
    20    13    14   ar
    21    13    30    1
    22    14     4    1
    23    14     9   ar
    24    15    16    1
    25    15    31    1
    26    16    17    1
    27    16    32    1
    28    16    33    1
    29    17    18   ar
    30    18    19   ar
    31    18    34    1
    32    19    20   ar
    33    19    35    1
    34    20    21   ar
    35    20    36    1
    36    21    22    1
    37    21    23   ar
    38    23    17   ar
    39    23    37    1
