@<TRIPOS>MOLECULE
*****
 37 39 0 0 0
SMALL
GASTEIGER

@<TRIPOS>ATOM
      1 O           0.1983    1.9574   -0.1388 O.2     1  UNL11      -0.2655
      2 C           0.0469    1.0576   -1.0005 C.2     1  UNL11       0.2964
      3 N           1.1656    0.8353   -1.8635 N.am    1  UNL11      -0.2301
      4 N           1.0701   -0.1540   -2.8746 N.pl3   1  UNL11      -0.2641
      5 C          -0.2157   -0.4181   -3.4202 C.ar    1  UNL11       0.0466
      6 C          -0.5303   -1.6675   -3.8856 C.ar    1  UNL11      -0.0392
      7 C          -1.8110   -1.8510   -4.3659 C.ar    1  UNL11      -0.0578
      8 C          -2.7446   -0.8331   -4.3850 C.ar    1  UNL11      -0.0315
      9 C          -2.4441    0.4313   -3.9216 C.ar    1  UNL11       0.1234
     10 N          -3.3982    1.4990   -3.9278 N.4     1  UNL11       0.0060
     11 O          -4.6174    1.3108   -3.8217 O.2     1  UNL11      -0.1300
     12 O          -2.9263    2.7660   -4.0479 O.2     1  UNL11      -0.3961
     13 C          -1.1636    0.6136   -3.4420 C.ar    1  UNL11      -0.0093
     14 C          -1.1780    0.2802   -1.1281 C.2     1  UNL11       0.2323
     15 O          -1.1470   -0.9938   -0.9899 O.2     1  UNL11      -0.2863
     16 C          -2.4856    0.8554   -1.4022 C.3     1  UNL11       0.1185
     17 C          -3.1123    1.0977   -2.6189 C.3     1  UNL11       0.0683
     18 N          -4.3513    1.5847   -2.4104 N.3     1  UNL11       0.3440
     19 C          -4.5753    1.6784   -1.0873 C.3     1  UNL11       0.0778
     20 C          -5.6273    2.1065   -0.2946 C.3     1  UNL11       0.0247
     21 C          -5.5975    2.1147    1.0672 C.3     1  UNL11      -0.0251
     22 C          -4.4387    1.6631    1.6999 C.3     1  UNL11      -0.0302
     23 C          -3.3858    1.2319    0.9145 C.3     1  UNL11      -0.0206
     24 C          -3.4311    1.2299   -0.4489 C.3     1  UNL11       0.0592
     25 H           2.0227    1.4079   -1.7215 H       1  UNL11       0.1731
     26 H           1.8914   -0.6449   -3.1872 H       1  UNL11       0.1700
     27 H           0.1670   -2.4981   -3.8918 H       1  UNL11       0.0636
     28 H          -2.1207   -2.8302   -4.7396 H       1  UNL11       0.0619
     29 H          -3.7693   -0.9596   -4.7603 H       1  UNL11       0.0640
     30 H          -0.9056    1.5976   -3.0775 H       1  UNL11       0.0659
     31 H          -2.6709    0.9151   -3.5938 H       1  UNL11       0.0934
     32 H          -5.0702    1.8652   -3.1160 H       1  UNL11       0.2370
     33 H          -6.5190    2.4485   -0.8211 H       1  UNL11       0.0369
     34 H          -6.4354    2.4539    1.6687 H       1  UNL11       0.0311
     35 H          -4.3640    1.6588    2.7691 H       1  UNL11       0.0309
     36 H          -2.4603    0.8793    1.3888 H       1  UNL11       0.0315
     37 H          -2.0051    2.9172   -4.1287 H       1  UNL11       0.3292
@<TRIPOS>BOND
     1     1     2    2
     2     2     3   am
     3     2    14    1
     4     3     4    1
     5     3    25    1
     6     4     5    1
     7     4    26    1
     8     5     6   ar
     9     6     7   ar
    10     6    27    1
    11     7     8   ar
    12     7    28    1
    13     8     9   ar
    14     8    29    1
    15     9    10    1
    16     9    13   ar
    17    10    11    2
    18    10    12    1
    19    13     5   ar
    20    13    30    1
    21    14    15    2
    22    14    16    1
    23    16    17    1
    24    17    18    1
    25    17    31    1
    26    18    19    1
    27    18    32    1
    28    19    20    1
    29    20    21    1
    30    20    33    1
    31    21    22    1
    32    21    34    1
    33    22    23    1
    34    22    35    1
    35    23    24    1
    36    23    36    1
    37    24    16    1
    38    24    19    1
    39    12    37    1
@<TRIPOS>MOLECULE
*****
 37 39 0 0 0
SMALL
GASTEIGER

@<TRIPOS>ATOM
      1 O           0.1983    1.9574   -0.1388 O.2     1  UNL11      -0.2655
      2 C           0.0469    1.0576   -1.0005 C.2     1  UNL11       0.2964
      3 N           1.1656    0.8353   -1.8635 N.am    1  UNL11      -0.2301
      4 N           1.0701   -0.1540   -2.8746 N.pl3   1  UNL11      -0.2641
      5 C           2.2647   -0.8217   -3.2594 C.ar    1  UNL11       0.0466
      6 C           2.4212   -1.2841   -4.5394 C.ar    1  UNL11      -0.0392
      7 C           3.6244   -1.8885   -4.8424 C.ar    1  UNL11      -0.0578
      8 C           4.6341   -2.0300   -3.9105 C.ar    1  UNL11      -0.0315
      9 C           4.4925   -1.5715   -2.6169 C.ar    1  UNL11       0.1234
     10 N           5.5282   -1.7036   -1.6370 N.4     1  UNL11       0.0060
     11 O           5.2961   -1.8256   -0.4268 O.2     1  UNL11      -0.1300
     12 O           6.8135   -1.7012   -2.0732 O.2     1  UNL11      -0.3961
     13 C           3.2895   -0.9678   -2.3151 C.ar    1  UNL11      -0.0093
     14 C          -1.1780    0.2802   -1.1281 C.2     1  UNL11       0.2323
     15 O          -2.1168    0.6839   -1.9020 O.2     1  UNL11      -0.2863
     16 C          -1.4288   -0.9697   -0.4277 C.3     1  UNL11       0.1185
     17 C          -1.6909   -2.2362   -0.9365 C.3     1  UNL11       0.0683
     18 N          -1.7985   -3.1247    0.0709 N.3     1  UNL11       0.3440
     19 C          -1.6175   -2.4911    1.2437 C.3     1  UNL11       0.0778
     20 C          -1.6241   -2.8663    2.5769 C.3     1  UNL11       0.0247
     21 C          -1.4218   -2.0019    3.6099 C.3     1  UNL11      -0.0251
     22 C          -1.1925   -0.6595    3.3058 C.3     1  UNL11      -0.0302
     23 C          -1.1820   -0.2788    1.9767 C.3     1  UNL11      -0.0206
     24 C          -1.3865   -1.1569    0.9530 C.3     1  UNL11       0.0592
     25 H           2.0227    1.4079   -1.7215 H       1  UNL11       0.1731
     26 H           0.1819   -0.3676   -3.2971 H       1  UNL11       0.1700
     27 H           1.6589   -1.1968   -5.3059 H       1  UNL11       0.0636
     28 H           3.8087   -2.2663   -5.8512 H       1  UNL11       0.0619
     29 H           5.5994   -2.5052   -4.1325 H       1  UNL11       0.0640
     30 H           3.1558   -0.6046   -1.3062 H       1  UNL11       0.0659
     31 H          -1.7881   -2.4757   -1.9909 H       1  UNL11       0.0934
     32 H          -1.9911   -4.1511    0.0189 H       1  UNL11       0.2370
     33 H          -1.8017   -3.9232    2.7789 H       1  UNL11       0.0369
     34 H          -1.4302   -2.3191    4.6483 H       1  UNL11       0.0311
     35 H          -1.0368    0.0602    4.0844 H       1  UNL11       0.0309
     36 H          -1.0115    0.7733    1.7121 H       1  UNL11       0.0315
     37 H           6.9979   -1.6094   -2.9873 H       1  UNL11       0.3292
@<TRIPOS>BOND
     1     1     2    2
     2     2     3   am
     3     2    14    1
     4     3     4    1
     5     3    25    1
     6     4     5    1
     7     4    26    1
     8     5     6   ar
     9     6     7   ar
    10     6    27    1
    11     7     8   ar
    12     7    28    1
    13     8     9   ar
    14     8    29    1
    15     9    10    1
    16     9    13   ar
    17    10    11    2
    18    10    12    1
    19    13     5   ar
    20    13    30    1
    21    14    15    2
    22    14    16    1
    23    16    17    1
    24    17    18    1
    25    17    31    1
    26    18    19    1
    27    18    32    1
    28    19    20    1
    29    20    21    1
    30    20    33    1
    31    21    22    1
    32    21    34    1
    33    22    23    1
    34    22    35    1
    35    23    24    1
    36    23    36    1
    37    24    16    1
    38    24    19    1
    39    12    37    1
@<TRIPOS>MOLECULE
*****
 37 39 0 0 0
SMALL
GASTEIGER

@<TRIPOS>ATOM
      1 O           0.1983    1.9574   -0.1388 O.2     1  UNL11      -0.2655
      2 C           0.0469    1.0576   -1.0005 C.2     1  UNL11       0.2964
      3 N           1.1656    0.8353   -1.8635 N.am    1  UNL11      -0.2301
      4 N           1.0701   -0.1540   -2.8746 N.pl3   1  UNL11      -0.2641
      5 C          -0.1484   -0.8792   -2.9753 C.ar    1  UNL11       0.0466
      6 C          -0.2986   -1.8581   -3.9218 C.ar    1  UNL11      -0.0392
      7 C          -1.4984   -2.5402   -3.9300 C.ar    1  UNL11      -0.0578
      8 C          -2.5117   -2.2610   -3.0338 C.ar    1  UNL11      -0.0315
      9 C          -2.3776   -1.2776   -2.0753 C.ar    1  UNL11       0.1234
     10 N          -3.4134   -0.9756   -1.1338 N.4     1  UNL11       0.0060
     11 O          -3.5834    0.1568   -0.6626 O.2     1  UNL11      -0.1300
     12 O          -4.2399   -1.9853   -0.7598 O.2     1  UNL11      -0.3961
     13 C          -1.1782   -0.5964   -2.0682 C.ar    1  UNL11      -0.0093
     14 C          -1.1780    0.2802   -1.1281 C.2     1  UNL11       0.2323
     15 O          -2.1168    0.6839   -1.9020 O.2     1  UNL11      -0.2863
     16 C          -1.4288   -0.9697   -0.4277 C.3     1  UNL11       0.1185
     17 C          -1.1587   -2.2762   -0.8173 C.3     1  UNL11       0.0683
     18 N          -1.4973   -3.1306    0.1682 N.3     1  UNL11       0.3440
     19 C          -1.9893   -2.4356    1.2096 C.3     1  UNL11       0.0778
     20 C          -2.4941   -2.7581    2.4583 C.3     1  UNL11       0.0247
     21 C          -2.9569   -1.8391    3.3508 C.3     1  UNL11      -0.0251
     22 C          -2.9179   -0.4931    2.9849 C.3     1  UNL11      -0.0302
     23 C          -2.4127   -0.1641    1.7408 C.3     1  UNL11      -0.0206
     24 C          -1.9528   -1.0966    0.8578 C.3     1  UNL11       0.0592
     25 H           2.0227    1.4079   -1.7215 H       1  UNL11       0.1731
     26 H           1.8447   -0.3271   -3.4937 H       1  UNL11       0.1700
     27 H           0.4666   -2.1139   -4.6465 H       1  UNL11       0.0636
     28 H          -1.6693   -3.3389   -4.6561 H       1  UNL11       0.0619
     29 H          -3.4723   -2.7940   -3.0221 H       1  UNL11       0.0640
     30 H          -1.0532    0.1808   -1.3280 H       1  UNL11       0.0659
     31 H          -0.7315   -2.5653   -1.7726 H       1  UNL11       0.0934
     32 H          -1.4182   -4.1731    0.1847 H       1  UNL11       0.2370
     33 H          -2.5060   -3.8184    2.7139 H       1  UNL11       0.0369
     34 H          -3.3475   -2.1152    4.3255 H       1  UNL11       0.0311
     35 H          -3.2789    0.2663    3.6495 H       1  UNL11       0.0309
     36 H          -2.3787    0.8877    1.4267 H       1  UNL11       0.0315
     37 H          -4.1182   -2.8451   -1.1116 H       1  UNL11       0.3292
@<TRIPOS>BOND
     1     1     2    2
     2     2     3   am
     3     2    14    1
     4     3     4    1
     5     3    25    1
     6     4     5    1
     7     4    26    1
     8     5     6   ar
     9     6     7   ar
    10     6    27    1
    11     7     8   ar
    12     7    28    1
    13     8     9   ar
    14     8    29    1
    15     9    10    1
    16     9    13   ar
    17    10    11    2
    18    10    12    1
    19    13     5   ar
    20    13    30    1
    21    14    15    2
    22    14    16    1
    23    16    17    1
    24    17    18    1
    25    17    31    1
    26    18    19    1
    27    18    32    1
    28    19    20    1
    29    20    21    1
    30    20    33    1
    31    21    22    1
    32    21    34    1
    33    22    23    1
    34    22    35    1
    35    23    24    1
    36    23    36    1
    37    24    16    1
    38    24    19    1
    39    12    37    1
@<TRIPOS>MOLECULE
*****
 37 39 0 0 0
SMALL
GASTEIGER

@<TRIPOS>ATOM
      1 O           0.1983    1.9574   -0.1388 O.2     1  UNL11      -0.2655
      2 C           0.0469    1.0576   -1.0005 C.2     1  UNL11       0.2964
      3 N           1.1656    0.8353   -1.8635 N.am    1  UNL11      -0.2301
      4 N           1.0701   -0.1540   -2.8746 N.pl3   1  UNL11      -0.2641
      5 C          -0.2157   -0.4181   -3.4202 C.ar    1  UNL11       0.0466
      6 C          -0.5303   -1.6675   -3.8856 C.ar    1  UNL11      -0.0392
      7 C          -1.8110   -1.8510   -4.3659 C.ar    1  UNL11      -0.0578
      8 C          -2.7446   -0.8331   -4.3850 C.ar    1  UNL11      -0.0315
      9 C          -2.4441    0.4313   -3.9216 C.ar    1  UNL11       0.1234
     10 N          -3.3982    1.4990   -3.9278 N.4     1  UNL11       0.0060
     11 O          -4.5551    1.3634   -4.3477 O.2     1  UNL11      -0.1300
     12 O          -3.0015    2.7024   -3.4409 O.2     1  UNL11      -0.3961
     13 C          -1.1636    0.6136   -3.4420 C.ar    1  UNL11      -0.0093
     14 C          -1.1780    0.2802   -1.1281 C.2     1  UNL11       0.2323
     15 O          -1.8428    0.3049   -2.2239 O.2     1  UNL11      -0.2863
     16 C          -1.7250   -0.5609   -0.0749 C.3     1  UNL11       0.1185
     17 C          -1.9769   -1.9277   -0.0703 C.3     1  UNL11       0.0683
     18 N          -2.4274   -2.3093    1.1410 N.3     1  UNL11       0.3440
     19 C          -2.4870   -1.2372    1.9513 C.3     1  UNL11       0.0778
     20 C          -2.8709   -1.0145    3.2632 C.3     1  UNL11       0.0247
     21 C          -2.8508    0.2082    3.8632 C.3     1  UNL11      -0.0251
     22 C          -2.4159    1.3000    3.1110 C.3     1  UNL11      -0.0302
     23 C          -2.0288    1.0842    1.8014 C.3     1  UNL11      -0.0206
     24 C          -2.0547   -0.1470    1.2147 C.3     1  UNL11       0.0592
     25 H           2.0227    1.4079   -1.7215 H       1  UNL11       0.1731
     26 H           1.8914   -0.6449   -3.1872 H       1  UNL11       0.1700
     27 H           0.1670   -2.4981   -3.8918 H       1  UNL11       0.0636
     28 H          -2.1207   -2.8302   -4.7396 H       1  UNL11       0.0619
     29 H          -3.7693   -0.9596   -4.7603 H       1  UNL11       0.0640
     30 H          -0.9056    1.5976   -3.0775 H       1  UNL11       0.0659
     31 H          -1.8266   -2.5914   -0.9162 H       1  UNL11       0.0934
     32 H          -2.7042   -3.2647    1.4638 H       1  UNL11       0.2370
     33 H          -3.2010   -1.8900    3.8237 H       1  UNL11       0.0369
     34 H          -3.1554    0.3589    4.8944 H       1  UNL11       0.0311
     35 H          -2.3907    2.2835    3.5361 H       1  UNL11       0.0309
     36 H          -1.6901    1.9287    1.1866 H       1  UNL11       0.0315
     37 H          -2.1278    2.8135   -3.1213 H       1  UNL11       0.3292
@<TRIPOS>BOND
     1     1     2    2
     2     2     3   am
     3     2    14    1
     4     3     4    1
     5     3    25    1
     6     4     5    1
     7     4    26    1
     8     5     6   ar
     9     6     7   ar
    10     6    27    1
    11     7     8   ar
    12     7    28    1
    13     8     9   ar
    14     8    29    1
    15     9    10    1
    16     9    13   ar
    17    10    11    2
    18    10    12    1
    19    13     5   ar
    20    13    30    1
    21    14    15    2
    22    14    16    1
    23    16    17    1
    24    17    18    1
    25    17    31    1
    26    18    19    1
    27    18    32    1
    28    19    20    1
    29    20    21    1
    30    20    33    1
    31    21    22    1
    32    21    34    1
    33    22    23    1
    34    22    35    1
    35    23    24    1
    36    23    36    1
    37    24    16    1
    38    24    19    1
    39    12    37    1
@<TRIPOS>MOLECULE
*****
 37 39 0 0 0
SMALL
GASTEIGER

@<TRIPOS>ATOM
      1 O           0.1983    1.9574   -0.1388 O.2     1  UNL11      -0.2655
      2 C           0.0469    1.0576   -1.0005 C.2     1  UNL11       0.2964
      3 N           1.1656    0.8353   -1.8635 N.am    1  UNL11      -0.2301
      4 N           2.3337    1.6208   -1.6938 N.pl3   1  UNL11      -0.2641
      5 C           2.6244    2.0972   -0.3864 C.ar    1  UNL11       0.0466
      6 C           1.7951    1.7991    0.6624 C.ar    1  UNL11      -0.0392
      7 C           2.1672    2.2686    1.9058 C.ar    1  UNL11      -0.0578
      8 C           3.3180    3.0071    2.1014 C.ar    1  UNL11      -0.0315
      9 C           4.1635    3.3174    1.0561 C.ar    1  UNL11       0.1234
     10 N           5.3635    4.0771    1.2378 N.4     1  UNL11       0.0060
     11 O           5.8315    4.8138    0.3594 O.2     1  UNL11      -0.1300
     12 O           5.9972    3.9792    2.4341 O.2     1  UNL11      -0.3961
     13 C           3.7905    2.8479   -0.1862 C.ar    1  UNL11      -0.0093
     14 C          -1.1780    0.2802   -1.1281 C.2     1  UNL11       0.2323
     15 O          -2.1168    0.6839   -1.9020 O.2     1  UNL11      -0.2863
     16 C          -1.4288   -0.9697   -0.4277 C.3     1  UNL11       0.1185
     17 C          -0.6207   -1.6670    0.4625 C.3     1  UNL11       0.0683
     18 N          -1.2738   -2.7504    0.9267 N.3     1  UNL11       0.3440
     19 C          -2.4984   -2.8025    0.3724 C.3     1  UNL11       0.0778
     20 C          -3.5805   -3.6631    0.4543 C.3     1  UNL11       0.0247
     21 C          -4.7385   -3.4955   -0.2431 C.3     1  UNL11      -0.0251
     22 C          -4.8401   -2.3900   -1.0884 C.3     1  UNL11      -0.0302
     23 C          -3.7645   -1.5255   -1.1727 C.3     1  UNL11      -0.0206
     24 C          -2.6110   -1.7072   -0.4675 C.3     1  UNL11       0.0592
     25 H           1.0880    0.1009   -2.5965 H       1  UNL11       0.1731
     26 H           2.9287    1.8265   -2.4792 H       1  UNL11       0.1700
     27 H           0.8817    1.2236    0.5598 H       1  UNL11       0.0636
     28 H           1.5490    2.0516    2.7805 H       1  UNL11       0.0619
     29 H           3.6328    3.3872    3.0829 H       1  UNL11       0.0640
     30 H           4.4365    3.0827   -1.0200 H       1  UNL11       0.0659
     31 H           0.3862   -1.3776    0.7472 H       1  UNL11       0.0934
     32 H          -0.9410   -3.4727    1.6056 H       1  UNL11       0.2370
     33 H          -3.4693   -4.5141    1.1274 H       1  UNL11       0.0369
     34 H          -5.5749   -4.1830   -0.1621 H       1  UNL11       0.0311
     35 H          -5.7277   -2.2201   -1.6645 H       1  UNL11       0.0309
     36 H          -3.8172   -0.6525   -1.8369 H       1  UNL11       0.0315
     37 H           5.6498    3.4240    3.1042 H       1  UNL11       0.3292
@<TRIPOS>BOND
     1     1     2    2
     2     2     3   am
     3     2    14    1
     4     3     4    1
     5     3    25    1
     6     4     5    1
     7     4    26    1
     8     5     6   ar
     9     6     7   ar
    10     6    27    1
    11     7     8   ar
    12     7    28    1
    13     8     9   ar
    14     8    29    1
    15     9    10    1
    16     9    13   ar
    17    10    11    2
    18    10    12    1
    19    13     5   ar
    20    13    30    1
    21    14    15    2
    22    14    16    1
    23    16    17    1
    24    17    18    1
    25    17    31    1
    26    18    19    1
    27    18    32    1
    28    19    20    1
    29    20    21    1
    30    20    33    1
    31    21    22    1
    32    21    34    1
    33    22    23    1
    34    22    35    1
    35    23    24    1
    36    23    36    1
    37    24    16    1
    38    24    19    1
    39    12    37    1
@<TRIPOS>MOLECULE
*****
 37 39 0 0 0
SMALL
GASTEIGER

@<TRIPOS>ATOM
      1 O           0.1983    1.9574   -0.1388 O.2     1  UNL11      -0.2655
      2 C           0.0469    1.0576   -1.0005 C.2     1  UNL11       0.2964
      3 N           1.1656    0.8353   -1.8635 N.am    1  UNL11      -0.2301
      4 N           1.0701   -0.1540   -2.8746 N.pl3   1  UNL11      -0.2641
      5 C          -0.2157   -0.4181   -3.4202 C.ar    1  UNL11       0.0466
      6 C          -1.1637    0.5693   -3.4751 C.ar    1  UNL11      -0.0392
      7 C          -2.3737    0.2420   -4.0526 C.ar    1  UNL11      -0.0578
      8 C          -2.6343   -1.0178   -4.5556 C.ar    1  UNL11      -0.0315
      9 C          -1.6915   -2.0241   -4.5070 C.ar    1  UNL11       0.1234
     10 N          -1.9393   -3.3350   -5.0268 N.4     1  UNL11       0.0060
     11 O          -3.0124   -3.6566   -5.5544 O.2     1  UNL11      -0.1300
     12 O          -0.9399   -4.2491   -4.9359 O.2     1  UNL11      -0.3961
     13 C          -0.4826   -1.6959   -3.9295 C.ar    1  UNL11      -0.0093
     14 C          -1.1780    0.2802   -1.1281 C.2     1  UNL11       0.2323
     15 O          -1.3135   -0.8158   -0.4771 O.2     1  UNL11      -0.2863
     16 C          -2.3070    0.6656   -1.9603 C.3     1  UNL11       0.1185
     17 C          -3.5252    0.0261   -2.1567 C.3     1  UNL11       0.0683
     18 N          -4.3101    0.7669   -2.9634 N.3     1  UNL11       0.3440
     19 C          -3.6535    1.8866   -3.3166 C.3     1  UNL11       0.0778
     20 C          -3.9362    2.9845   -4.1122 C.3     1  UNL11       0.0247
     21 C          -3.0669    4.0109   -4.3266 C.3     1  UNL11      -0.0251
     22 C          -1.8184    3.9526   -3.7060 C.3     1  UNL11      -0.0302
     23 C          -1.5308    2.8607   -2.9084 C.3     1  UNL11      -0.0206
     24 C          -2.4126    1.8402   -2.7034 C.3     1  UNL11       0.0592
     25 H           2.0227    1.4079   -1.7215 H       1  UNL11       0.1731
     26 H           1.8914   -0.6449   -3.1872 H       1  UNL11       0.1700
     27 H          -1.0072    1.5726   -3.0943 H       1  UNL11       0.0636
     28 H          -3.1631    0.9936   -4.1333 H       1  UNL11       0.0619
     29 H          -3.5893   -1.2972   -5.0212 H       1  UNL11       0.0640
     30 H           0.2691   -2.4704   -3.8775 H       1  UNL11       0.0659
     31 H          -3.8057   -0.9271   -1.7192 H       1  UNL11       0.0934
     32 H          -5.2790    0.5626   -3.2997 H       1  UNL11       0.2370
     33 H          -4.9221    3.0004   -4.5784 H       1  UNL11       0.0369
     34 H          -3.3108    4.8629   -4.9539 H       1  UNL11       0.0311
     35 H          -1.0971    4.7318   -3.8512 H       1  UNL11       0.0309
     36 H          -0.5522    2.7880   -2.4154 H       1  UNL11       0.0315
     37 H          -0.1247   -4.0140   -4.5382 H       1  UNL11       0.3292
@<TRIPOS>BOND
     1     1     2    2
     2     2     3   am
     3     2    14    1
     4     3     4    1
     5     3    25    1
     6     4     5    1
     7     4    26    1
     8     5     6   ar
     9     6     7   ar
    10     6    27    1
    11     7     8   ar
    12     7    28    1
    13     8     9   ar
    14     8    29    1
    15     9    10    1
    16     9    13   ar
    17    10    11    2
    18    10    12    1
    19    13     5   ar
    20    13    30    1
    21    14    15    2
    22    14    16    1
    23    16    17    1
    24    17    18    1
    25    17    31    1
    26    18    19    1
    27    18    32    1
    28    19    20    1
    29    20    21    1
    30    20    33    1
    31    21    22    1
    32    21    34    1
    33    22    23    1
    34    22    35    1
    35    23    24    1
    36    23    36    1
    37    24    16    1
    38    24    19    1
    39    12    37    1
@<TRIPOS>MOLECULE
*****
 37 39 0 0 0
SMALL
GASTEIGER

@<TRIPOS>ATOM
      1 O           0.1983    1.9574   -0.1388 O.2     1  UNL11      -0.2655
      2 C           0.0469    1.0576   -1.0005 C.2     1  UNL11       0.2964
      3 N           1.1656    0.8353   -1.8635 N.am    1  UNL11      -0.2301
      4 N           2.3337    1.6208   -1.6938 N.pl3   1  UNL11      -0.2641
      5 C           2.6244    2.0972   -0.3864 C.ar    1  UNL11       0.0466
      6 C           3.9210    2.2945    0.0093 C.ar    1  UNL11      -0.0392
      7 C           4.1168    2.7935    1.2811 C.ar    1  UNL11      -0.0578
      8 C           3.0662    3.0846    2.1292 C.ar    1  UNL11      -0.0315
      9 C           1.7546    2.8904    1.7472 C.ar    1  UNL11       0.1234
     10 N           0.6508    3.1902    2.6087 N.4     1  UNL11       0.0060
     11 O           0.7950    3.6429    3.7522 O.2     1  UNL11      -0.1300
     12 O          -0.6004    2.9699    2.1310 O.2     1  UNL11      -0.3961
     13 C           1.5600    2.3915    0.4760 C.ar    1  UNL11      -0.0093
     14 C          -1.1780    0.2802   -1.1281 C.2     1  UNL11       0.2323
     15 O          -1.8428    0.3049   -2.2239 O.2     1  UNL11      -0.2863
     16 C          -1.7250   -0.5609   -0.0749 C.3     1  UNL11       0.1185
     17 C          -1.2455   -0.8046    1.2066 C.3     1  UNL11       0.0683
     18 N          -2.1023   -1.6007    1.8758 N.3     1  UNL11       0.3440
     19 C          -3.1444   -1.9009    1.0798 C.3     1  UNL11       0.0778
     20 C          -4.2937   -2.6630    1.2076 C.3     1  UNL11       0.0247
     21 C          -5.2128   -2.8234    0.2152 C.3     1  UNL11      -0.0251
     22 C          -4.9826   -2.1798   -1.0013 C.3     1  UNL11      -0.0302
     23 C          -3.8385   -1.4152   -1.1346 C.3     1  UNL11      -0.0206
     24 C          -2.9271   -1.2644   -0.1309 C.3     1  UNL11       0.0592
     25 H           1.0880    0.1009   -2.5965 H       1  UNL11       0.1731
     26 H           2.9287    1.8265   -2.4792 H       1  UNL11       0.1700
     27 H           4.7787    2.0813   -0.6192 H       1  UNL11       0.0636
     28 H           5.1299    2.9810    1.6457 H       1  UNL11       0.0619
     29 H           3.2009    3.4848    3.1433 H       1  UNL11       0.0640
     30 H           0.5404    2.2281    0.1577 H       1  UNL11       0.0659
     31 H          -0.3201   -0.4066    1.6112 H       1  UNL11       0.0934
     32 H          -2.0287   -1.9637    2.8537 H       1  UNL11       0.2370
     33 H          -4.4449   -3.1485    2.1725 H       1  UNL11       0.0369
     34 H          -6.1080   -3.4253    0.3386 H       1  UNL11       0.0311
     35 H          -5.6722   -2.2827   -1.8151 H       1  UNL11       0.0309
     36 H          -3.6310   -0.9052   -2.0848 H       1  UNL11       0.0315
     37 H          -0.7184    2.6275    1.2668 H       1  UNL11       0.3292
@<TRIPOS>BOND
     1     1     2    2
     2     2     3   am
     3     2    14    1
     4     3     4    1
     5     3    25    1
     6     4     5    1
     7     4    26    1
     8     5     6   ar
     9     6     7   ar
    10     6    27    1
    11     7     8   ar
    12     7    28    1
    13     8     9   ar
    14     8    29    1
    15     9    10    1
    16     9    13   ar
    17    10    11    2
    18    10    12    1
    19    13     5   ar
    20    13    30    1
    21    14    15    2
    22    14    16    1
    23    16    17    1
    24    17    18    1
    25    17    31    1
    26    18    19    1
    27    18    32    1
    28    19    20    1
    29    20    21    1
    30    20    33    1
    31    21    22    1
    32    21    34    1
    33    22    23    1
    34    22    35    1
    35    23    24    1
    36    23    36    1
    37    24    16    1
    38    24    19    1
    39    12    37    1
@<TRIPOS>MOLECULE
*****
 37 39 0 0 0
SMALL
GASTEIGER

@<TRIPOS>ATOM
      1 O           0.1983    1.9574   -0.1388 O.2     1  UNL11      -0.2655
      2 C           0.0469    1.0576   -1.0005 C.2     1  UNL11       0.2964
      3 N           1.1656    0.8353   -1.8635 N.am    1  UNL11      -0.2301
      4 N           1.0701   -0.1540   -2.8746 N.pl3   1  UNL11      -0.2641
      5 C           1.8130    0.0497   -4.0694 C.ar    1  UNL11       0.0466
      6 C           2.0813    1.3175   -4.5135 C.ar    1  UNL11      -0.0392
      7 C           2.8393    1.4298   -5.6614 C.ar    1  UNL11      -0.0578
      8 C           3.3124    0.3261   -6.3440 C.ar    1  UNL11      -0.0315
      9 C           3.0503   -0.9576   -5.9113 C.ar    1  UNL11       0.1234
     10 N           3.5352   -2.1151   -6.6009 N.4     1  UNL11       0.0060
     11 O           3.7331   -2.1349   -7.8231 O.2     1  UNL11      -0.1300
     12 O           3.7911   -3.2267   -5.8653 O.2     1  UNL11      -0.3961
     13 C           2.2925   -1.0688   -4.7641 C.ar    1  UNL11      -0.0093
     14 C          -1.1780    0.2802   -1.1281 C.2     1  UNL11       0.2323
     15 O          -2.1639    0.5016   -0.3392 O.2     1  UNL11      -0.2863
     16 C          -1.3843   -0.7618   -2.1218 C.3     1  UNL11       0.1185
     17 C          -0.6890   -1.9484   -2.3224 C.3     1  UNL11       0.0683
     18 N          -1.2585   -2.6537   -3.3194 N.3     1  UNL11       0.3440
     19 C          -2.3169   -1.9740   -3.7964 C.3     1  UNL11       0.0778
     20 C          -3.2529   -2.1839   -4.7954 C.3     1  UNL11       0.0247
     21 C          -4.2490   -1.3059   -5.0992 C.3     1  UNL11      -0.0251
     22 C          -4.3314   -0.1264   -4.3582 C.3     1  UNL11      -0.0302
     23 C          -3.4016    0.0880   -3.3577 C.3     1  UNL11      -0.0206
     24 C          -2.4095   -0.8014   -3.0654 C.3     1  UNL11       0.0592
     25 H           2.0227    1.4079   -1.7215 H       1  UNL11       0.1731
     26 H           0.4937   -0.9680   -2.7391 H       1  UNL11       0.1700
     27 H           1.7326    2.2144   -4.0134 H       1  UNL11       0.0636
     28 H           3.0933    2.4171   -6.0554 H       1  UNL11       0.0619
     29 H           3.9192    0.3944   -7.2571 H       1  UNL11       0.0640
     30 H           2.0720   -2.0654   -4.4096 H       1  UNL11       0.0659
     31 H           0.1811   -2.2638   -1.7548 H       1  UNL11       0.0934
     32 H          -0.9740   -3.5817   -3.7084 H       1  UNL11       0.2370
     33 H          -3.1624   -3.1175   -5.3519 H       1  UNL11       0.0369
     34 H          -4.9731   -1.4921   -5.8866 H       1  UNL11       0.0311
     35 H          -5.0922    0.5994   -4.5656 H       1  UNL11       0.0309
     36 H          -3.4408    1.0122   -2.7658 H       1  UNL11       0.0315
     37 H           3.6441   -3.2202   -4.9399 H       1  UNL11       0.3292
@<TRIPOS>BOND
     1     1     2    2
     2     2     3   am
     3     2    14    1
     4     3     4    1
     5     3    25    1
     6     4     5    1
     7     4    26    1
     8     5     6   ar
     9     6     7   ar
    10     6    27    1
    11     7     8   ar
    12     7    28    1
    13     8     9   ar
    14     8    29    1
    15     9    10    1
    16     9    13   ar
    17    10    11    2
    18    10    12    1
    19    13     5   ar
    20    13    30    1
    21    14    15    2
    22    14    16    1
    23    16    17    1
    24    17    18    1
    25    17    31    1
    26    18    19    1
    27    18    32    1
    28    19    20    1
    29    20    21    1
    30    20    33    1
    31    21    22    1
    32    21    34    1
    33    22    23    1
    34    22    35    1
    35    23    24    1
    36    23    36    1
    37    24    16    1
    38    24    19    1
    39    12    37    1
@<TRIPOS>MOLECULE
*****
 37 39 0 0 0
SMALL
GASTEIGER

@<TRIPOS>ATOM
      1 O           0.1983    1.9574   -0.1388 O.2     1  UNL11      -0.2655
      2 C           0.0469    1.0576   -1.0005 C.2     1  UNL11       0.2964
      3 N           1.1656    0.8353   -1.8635 N.am    1  UNL11      -0.2301
      4 N           1.0701   -0.1540   -2.8746 N.pl3   1  UNL11      -0.2641
      5 C           2.2647   -0.8217   -3.2594 C.ar    1  UNL11       0.0466
      6 C           3.4749   -0.1855   -3.1745 C.ar    1  UNL11      -0.0392
      7 C           4.5905   -0.9149   -3.5325 C.ar    1  UNL11      -0.0578
      8 C           4.5088   -2.2259   -3.9599 C.ar    1  UNL11      -0.0315
      9 C           3.2980   -2.8812   -4.0527 C.ar    1  UNL11       0.1234
     10 N           3.1915   -4.2410   -4.4884 N.4     1  UNL11       0.0060
     11 O           2.2002   -4.6785   -5.0877 O.2     1  UNL11      -0.1300
     12 O           4.2357   -5.0694   -4.2318 O.2     1  UNL11      -0.3961
     13 C           2.1837   -2.1511   -3.6948 C.ar    1  UNL11      -0.0093
     14 C          -1.1780    0.2802   -1.1281 C.2     1  UNL11       0.2323
     15 O          -2.1639    0.5016   -0.3392 O.2     1  UNL11      -0.2863
     16 C          -1.3843   -0.7618   -2.1218 C.3     1  UNL11       0.1185
     17 C          -1.3433   -0.6873   -3.5090 C.3     1  UNL11       0.0683
     18 N          -1.5293   -1.9108   -4.0422 N.3     1  UNL11       0.3440
     19 C          -1.6958   -2.8064   -3.0524 C.3     1  UNL11       0.0778
     20 C          -1.9289   -4.1701   -2.9873 C.3     1  UNL11       0.0247
     21 C          -2.0791   -4.8600   -1.8225 C.3     1  UNL11      -0.0251
     22 C          -1.9911   -4.1501   -0.6245 C.3     1  UNL11      -0.0302
     23 C          -1.7560   -2.7890   -0.6823 C.3     1  UNL11      -0.0206
     24 C          -1.6077   -2.1121   -1.8574 C.3     1  UNL11       0.0592
     25 H           2.0227    1.4079   -1.7215 H       1  UNL11       0.1731
     26 H           0.1819   -0.3676   -3.2971 H       1  UNL11       0.1700
     27 H           3.5907    0.8414   -2.8454 H       1  UNL11       0.0636
     28 H           5.5832   -0.4616   -3.4739 H       1  UNL11       0.0619
     29 H           5.3845   -2.8241   -4.2464 H       1  UNL11       0.0640
     30 H           1.2244   -2.6438   -3.7636 H       1  UNL11       0.0659
     31 H          -1.1790    0.2219   -4.0791 H       1  UNL11       0.0934
     32 H          -1.5532   -2.1873   -5.0504 H       1  UNL11       0.2370
     33 H          -1.9874   -4.6949   -3.9417 H       1  UNL11       0.0369
     34 H          -2.2601   -5.9303   -1.7956 H       1  UNL11       0.0311
     35 H          -2.1113   -4.6471    0.3174 H       1  UNL11       0.0309
     36 H          -1.6904   -2.2069    0.2466 H       1  UNL11       0.0315
     37 H           4.9896   -4.7463   -3.7788 H       1  UNL11       0.3292
@<TRIPOS>BOND
     1     1     2    2
     2     2     3   am
     3     2    14    1
     4     3     4    1
     5     3    25    1
     6     4     5    1
     7     4    26    1
     8     5     6   ar
     9     6     7   ar
    10     6    27    1
    11     7     8   ar
    12     7    28    1
    13     8     9   ar
    14     8    29    1
    15     9    10    1
    16     9    13   ar
    17    10    11    2
    18    10    12    1
    19    13     5   ar
    20    13    30    1
    21    14    15    2
    22    14    16    1
    23    16    17    1
    24    17    18    1
    25    17    31    1
    26    18    19    1
    27    18    32    1
    28    19    20    1
    29    20    21    1
    30    20    33    1
    31    21    22    1
    32    21    34    1
    33    22    23    1
    34    22    35    1
    35    23    24    1
    36    23    36    1
    37    24    16    1
    38    24    19    1
    39    12    37    1
@<TRIPOS>MOLECULE
*****
 37 39 0 0 0
SMALL
GASTEIGER

@<TRIPOS>ATOM
      1 O           0.1983    1.9574   -0.1388 O.2     1  UNL11      -0.2655
      2 C           0.0469    1.0576   -1.0005 C.2     1  UNL11       0.2964
      3 N           1.1656    0.8353   -1.8635 N.am    1  UNL11      -0.2301
      4 N           2.3337    1.6208   -1.6938 N.pl3   1  UNL11      -0.2641
      5 C           2.6244    2.0972   -0.3864 C.ar    1  UNL11       0.0466
      6 C           1.6128    2.3520    0.5015 C.ar    1  UNL11      -0.0392
      7 C           1.9805    2.7770    1.7621 C.ar    1  UNL11      -0.0578
      8 C           3.3019    2.9441    2.1280 C.ar    1  UNL11      -0.0315
      9 C           4.3329    2.6933    1.2458 C.ar    1  UNL11       0.1234
     10 N           5.7092    2.8553    1.6061 N.4     1  UNL11       0.0060
     11 O           6.0907    3.6805    2.4468 O.2     1  UNL11      -0.1300
     12 O           6.6197    2.0553    0.9951 O.2     1  UNL11      -0.3961
     13 C           3.9643    2.2689   -0.0138 C.ar    1  UNL11      -0.0093
     14 C          -1.1780    0.2802   -1.1281 C.2     1  UNL11       0.2323
     15 O          -2.1639    0.5016   -0.3392 O.2     1  UNL11      -0.2863
     16 C          -1.3843   -0.7618   -2.1218 C.3     1  UNL11       0.1185
     17 C          -2.3397   -0.8545   -3.1269 C.3     1  UNL11       0.0683
     18 N          -2.1266   -1.9616   -3.8649 N.3     1  UNL11       0.3440
     19 C          -1.0553   -2.6174   -3.3836 C.3     1  UNL11       0.0778
     20 C          -0.3861   -3.7848   -3.7116 C.3     1  UNL11       0.0247
     21 C           0.6994   -4.2534   -3.0354 C.3     1  UNL11      -0.0251
     22 C           1.1650   -3.5117   -1.9490 C.3     1  UNL11      -0.0302
     23 C           0.5031   -2.3440   -1.6178 C.3     1  UNL11      -0.0206
     24 C          -0.5832   -1.8878   -2.3053 C.3     1  UNL11       0.0592
     25 H           1.0880    0.1009   -2.5965 H       1  UNL11       0.1731
     26 H           2.9287    1.8265   -2.4792 H       1  UNL11       0.1700
     27 H           0.5615    2.2362    0.2620 H       1  UNL11       0.0636
     28 H           1.2158    2.9846    2.5147 H       1  UNL11       0.0619
     29 H           3.6151    3.2784    3.1264 H       1  UNL11       0.0640
     30 H           4.7558    2.0704   -0.7221 H       1  UNL11       0.0659
     31 H          -3.1365   -0.1369   -3.2965 H       1  UNL11       0.0934
     32 H          -2.6679   -2.3121   -4.6881 H       1  UNL11       0.2370
     33 H          -0.7734   -4.3375   -4.5684 H       1  UNL11       0.0369
     34 H           1.2093   -5.1714   -3.3116 H       1  UNL11       0.0311
     35 H           2.0104   -3.8441   -1.3802 H       1  UNL11       0.0309
     36 H           0.8457   -1.7468   -0.7622 H       1  UNL11       0.0315
     37 H           6.3394    1.4282    0.3578 H       1  UNL11       0.3292
@<TRIPOS>BOND
     1     1     2    2
     2     2     3   am
     3     2    14    1
     4     3     4    1
     5     3    25    1
     6     4     5    1
     7     4    26    1
     8     5     6   ar
     9     6     7   ar
    10     6    27    1
    11     7     8   ar
    12     7    28    1
    13     8     9   ar
    14     8    29    1
    15     9    10    1
    16     9    13   ar
    17    10    11    2
    18    10    12    1
    19    13     5   ar
    20    13    30    1
    21    14    15    2
    22    14    16    1
    23    16    17    1
    24    17    18    1
    25    17    31    1
    26    18    19    1
    27    18    32    1
    28    19    20    1
    29    20    21    1
    30    20    33    1
    31    21    22    1
    32    21    34    1
    33    22    23    1
    34    22    35    1
    35    23    24    1
    36    23    36    1
    37    24    16    1
    38    24    19    1
    39    12    37    1
@<TRIPOS>MOLECULE
*****
 37 39 0 0 0
SMALL
GASTEIGER

@<TRIPOS>ATOM
      1 O           0.1983    1.9574   -0.1388 O.2     1  UNL11      -0.2655
      2 C           0.0469    1.0576   -1.0005 C.2     1  UNL11       0.2964
      3 N           1.1656    0.8353   -1.8635 N.am    1  UNL11      -0.2301
      4 N           1.0701   -0.1540   -2.8746 N.pl3   1  UNL11      -0.2641
      5 C           0.2264   -1.2711   -2.6273 C.ar    1  UNL11       0.0466
      6 C          -0.4059   -1.9074   -3.6627 C.ar    1  UNL11      -0.0392
      7 C          -1.1782   -3.0055   -3.3425 C.ar    1  UNL11      -0.0578
      8 C          -1.3190   -3.4551   -2.0441 C.ar    1  UNL11      -0.0315
      9 C          -0.6905   -2.8252   -0.9895 C.ar    1  UNL11       0.1234
     10 N          -0.8190   -3.2776    0.3629 N.4     1  UNL11       0.0060
     11 O          -0.7625   -2.5129    1.3352 O.2     1  UNL11      -0.1300
     12 O          -1.0192   -4.6043    0.5680 O.2     1  UNL11      -0.3961
     13 C           0.0809   -1.7276   -1.3106 C.ar    1  UNL11      -0.0093
     14 C          -1.1780    0.2802   -1.1281 C.2     1  UNL11       0.2323
     15 O          -1.8428    0.3049   -2.2239 O.2     1  UNL11      -0.2863
     16 C          -1.7250   -0.5609   -0.0749 C.3     1  UNL11       0.1185
     17 C          -1.9769   -1.9277   -0.0703 C.3     1  UNL11       0.0683
     18 N          -2.4274   -2.3093    1.1410 N.3     1  UNL11       0.3440
     19 C          -2.4870   -1.2372    1.9513 C.3     1  UNL11       0.0778
     20 C          -2.8709   -1.0145    3.2632 C.3     1  UNL11       0.0247
     21 C          -2.8508    0.2082    3.8632 C.3     1  UNL11      -0.0251
     22 C          -2.4159    1.3000    3.1110 C.3     1  UNL11      -0.0302
     23 C          -2.0288    1.0842    1.8014 C.3     1  UNL11      -0.0206
     24 C          -2.0547   -0.1470    1.2147 C.3     1  UNL11       0.0592
     25 H           2.0227    1.4079   -1.7215 H       1  UNL11       0.1731
     26 H           1.5861   -0.0572   -3.7334 H       1  UNL11       0.1700
     27 H          -0.3268   -1.5930   -4.6976 H       1  UNL11       0.0636
     28 H          -1.6968   -3.5585   -4.1297 H       1  UNL11       0.0619
     29 H          -1.9263   -4.3282   -1.7691 H       1  UNL11       0.0640
     30 H           0.5793   -1.2168   -0.4992 H       1  UNL11       0.0659
     31 H          -1.8266   -2.5914   -0.9162 H       1  UNL11       0.0934
     32 H          -2.7042   -3.2647    1.4638 H       1  UNL11       0.2370
     33 H          -3.2010   -1.8900    3.8237 H       1  UNL11       0.0369
     34 H          -3.1554    0.3589    4.8944 H       1  UNL11       0.0311
     35 H          -2.3907    2.2835    3.5361 H       1  UNL11       0.0309
     36 H          -1.6901    1.9287    1.1866 H       1  UNL11       0.0315
     37 H          -1.0633   -5.1899   -0.1621 H       1  UNL11       0.3292
@<TRIPOS>BOND
     1     1     2    2
     2     2     3   am
     3     2    14    1
     4     3     4    1
     5     3    25    1
     6     4     5    1
     7     4    26    1
     8     5     6   ar
     9     6     7   ar
    10     6    27    1
    11     7     8   ar
    12     7    28    1
    13     8     9   ar
    14     8    29    1
    15     9    10    1
    16     9    13   ar
    17    10    11    2
    18    10    12    1
    19    13     5   ar
    20    13    30    1
    21    14    15    2
    22    14    16    1
    23    16    17    1
    24    17    18    1
    25    17    31    1
    26    18    19    1
    27    18    32    1
    28    19    20    1
    29    20    21    1
    30    20    33    1
    31    21    22    1
    32    21    34    1
    33    22    23    1
    34    22    35    1
    35    23    24    1
    36    23    36    1
    37    24    16    1
    38    24    19    1
    39    12    37    1
@<TRIPOS>MOLECULE
*****
 37 39 0 0 0
SMALL
GASTEIGER

@<TRIPOS>ATOM
      1 O           0.1983    1.9574   -0.1388 O.2     1  UNL11      -0.2655
      2 C           0.0469    1.0576   -1.0005 C.2     1  UNL11       0.2964
      3 N           1.1656    0.8353   -1.8635 N.am    1  UNL11      -0.2301
      4 N           1.0701   -0.1540   -2.8746 N.pl3   1  UNL11      -0.2641
      5 C           1.8130    0.0497   -4.0694 C.ar    1  UNL11       0.0466
      6 C           2.2837   -1.0187   -4.7861 C.ar    1  UNL11      -0.0392
      7 C           2.9640   -0.7369   -5.9533 C.ar    1  UNL11      -0.0578
      8 C           3.1709    0.5562   -6.3927 C.ar    1  UNL11      -0.0315
      9 C           2.7050    1.6436   -5.6825 C.ar    1  UNL11       0.1234
     10 N           2.9042    2.9915   -6.1226 N.4     1  UNL11       0.0060
     11 O           3.8826    3.3404   -6.7965 O.2     1  UNL11      -0.1300
     12 O           1.9652    3.9112   -5.7835 O.2     1  UNL11      -0.3961
     13 C           2.0254    1.3608   -4.5159 C.ar    1  UNL11      -0.0093
     14 C          -1.1780    0.2802   -1.1281 C.2     1  UNL11       0.2323
     15 O          -1.1470   -0.9938   -0.9899 O.2     1  UNL11      -0.2863
     16 C          -2.4856    0.8554   -1.4022 C.3     1  UNL11       0.1185
     17 C          -2.9194    1.5945   -2.4964 C.3     1  UNL11       0.0683
     18 N          -4.2315    1.8752   -2.3722 N.3     1  UNL11       0.3440
     19 C          -4.6925    1.3468   -1.2242 C.3     1  UNL11       0.0778
     20 C          -5.9153    1.3182   -0.5745 C.3     1  UNL11       0.0247
     21 C          -6.1236    0.7081    0.6254 C.3     1  UNL11      -0.0251
     22 C          -5.0405    0.0730    1.2342 C.3     1  UNL11      -0.0302
     23 C          -3.8176    0.0955    0.5897 C.3     1  UNL11      -0.0206
     24 C          -3.6250    0.7112   -0.6123 C.3     1  UNL11       0.0592
     25 H           2.0227    1.4079   -1.7215 H       1  UNL11       0.1731
     26 H           0.4937   -0.9680   -2.7391 H       1  UNL11       0.1700
     27 H           2.1471   -2.0510   -4.4829 H       1  UNL11       0.0636
     28 H           3.3522   -1.5506   -6.5710 H       1  UNL11       0.0619
     29 H           3.7070    0.8012   -7.3197 H       1  UNL11       0.0640
     30 H           1.6550    2.1979   -3.9419 H       1  UNL11       0.0659
     31 H          -2.2946    1.8958   -3.3315 H       1  UNL11       0.0934
     32 H          -4.8493    2.4118   -3.0233 H       1  UNL11       0.2370
     33 H          -6.7412    1.8202   -1.0800 H       1  UNL11       0.0369
     34 H          -7.0921    0.6974    1.1160 H       1  UNL11       0.0311
     35 H          -5.1525   -0.4132    2.1827 H       1  UNL11       0.0309
     36 H          -2.9483   -0.3905    1.0523 H       1  UNL11       0.0315
     37 H           1.2217    3.6556   -5.2737 H       1  UNL11       0.3292
@<TRIPOS>BOND
     1     1     2    2
     2     2     3   am
     3     2    14    1
     4     3     4    1
     5     3    25    1
     6     4     5    1
     7     4    26    1
     8     5     6   ar
     9     6     7   ar
    10     6    27    1
    11     7     8   ar
    12     7    28    1
    13     8     9   ar
    14     8    29    1
    15     9    10    1
    16     9    13   ar
    17    10    11    2
    18    10    12    1
    19    13     5   ar
    20    13    30    1
    21    14    15    2
    22    14    16    1
    23    16    17    1
    24    17    18    1
    25    17    31    1
    26    18    19    1
    27    18    32    1
    28    19    20    1
    29    20    21    1
    30    20    33    1
    31    21    22    1
    32    21    34    1
    33    22    23    1
    34    22    35    1
    35    23    24    1
    36    23    36    1
    37    24    16    1
    38    24    19    1
    39    12    37    1
@<TRIPOS>MOLECULE
*****
 37 39 0 0 0
SMALL
GASTEIGER

@<TRIPOS>ATOM
      1 O           0.1983    1.9574   -0.1388 O.2     1  UNL11      -0.2655
      2 C           0.0469    1.0576   -1.0005 C.2     1  UNL11       0.2964
      3 N           1.1656    0.8353   -1.8635 N.am    1  UNL11      -0.2301
      4 N           2.3337    1.6208   -1.6938 N.pl3   1  UNL11      -0.2641
      5 C           2.6244    2.0972   -0.3864 C.ar    1  UNL11       0.0466
      6 C           3.2888    3.2822   -0.2100 C.ar    1  UNL11      -0.0392
      7 C           3.4999    3.6922    1.0908 C.ar    1  UNL11      -0.0578
      8 C           3.0693    2.9541    2.1760 C.ar    1  UNL11      -0.0315
      9 C           2.4002    1.7580    2.0163 C.ar    1  UNL11       0.1234
     10 N           1.9412    0.9799    3.1272 N.4     1  UNL11       0.0060
     11 O           2.5096    0.9792    4.2273 O.2     1  UNL11      -0.1300
     12 O           0.8285    0.2229    2.9504 O.2     1  UNL11      -0.3961
     13 C           2.1900    1.3490    0.7158 C.ar    1  UNL11      -0.0093
     14 C          -1.1780    0.2802   -1.1281 C.2     1  UNL11       0.2323
     15 O          -1.1470   -0.9938   -0.9899 O.2     1  UNL11      -0.2863
     16 C          -2.4856    0.8554   -1.4022 C.3     1  UNL11       0.1185
     17 C          -3.6527    0.8078   -0.6492 C.3     1  UNL11       0.0683
     18 N          -4.6175    1.5336   -1.2477 N.3     1  UNL11       0.3440
     19 C          -4.1326    2.0671   -2.3834 C.3     1  UNL11       0.0778
     20 C          -4.6426    2.8692   -3.3907 C.3     1  UNL11       0.0247
     21 C          -3.9262    3.2715   -4.4771 C.3     1  UNL11      -0.0251
     22 C          -2.5995    2.8515   -4.5792 C.3     1  UNL11      -0.0302
     23 C          -2.0834    2.0528   -3.5757 C.3     1  UNL11      -0.0206
     24 C          -2.8141    1.6581   -2.4935 C.3     1  UNL11       0.0592
     25 H           1.0880    0.1009   -2.5965 H       1  UNL11       0.1731
     26 H           2.9287    1.8265   -2.4792 H       1  UNL11       0.1700
     27 H           3.6463    3.8968   -1.0289 H       1  UNL11       0.0636
     28 H           4.0149    4.6351    1.2909 H       1  UNL11       0.0619
     29 H           3.2250    3.2644    3.2183 H       1  UNL11       0.0640
     30 H           1.6710    0.4128    0.5677 H       1  UNL11       0.0659
     31 H          -3.7682    0.2703    0.2870 H       1  UNL11       0.0934
     32 H          -5.6022    1.6953   -0.9351 H       1  UNL11       0.2370
     33 H          -5.6810    3.1831   -3.2773 H       1  UNL11       0.0369
     34 H          -4.3469    3.9020   -5.2545 H       1  UNL11       0.0311
     35 H          -1.9979    3.1347   -5.4198 H       1  UNL11       0.0309
     36 H          -1.0442    1.7029   -3.6373 H       1  UNL11       0.0315
     37 H           0.3923    0.2177    2.1211 H       1  UNL11       0.3292
@<TRIPOS>BOND
     1     1     2    2
     2     2     3   am
     3     2    14    1
     4     3     4    1
     5     3    25    1
     6     4     5    1
     7     4    26    1
     8     5     6   ar
     9     6     7   ar
    10     6    27    1
    11     7     8   ar
    12     7    28    1
    13     8     9   ar
    14     8    29    1
    15     9    10    1
    16     9    13   ar
    17    10    11    2
    18    10    12    1
    19    13     5   ar
    20    13    30    1
    21    14    15    2
    22    14    16    1
    23    16    17    1
    24    17    18    1
    25    17    31    1
    26    18    19    1
    27    18    32    1
    28    19    20    1
    29    20    21    1
    30    20    33    1
    31    21    22    1
    32    21    34    1
    33    22    23    1
    34    22    35    1
    35    23    24    1
    36    23    36    1
    37    24    16    1
    38    24    19    1
    39    12    37    1
@<TRIPOS>MOLECULE
*****
 37 39 0 0 0
SMALL
GASTEIGER

@<TRIPOS>ATOM
      1 O           0.1983    1.9574   -0.1388 O.2     1  UNL11      -0.2655
      2 C           0.0469    1.0576   -1.0005 C.2     1  UNL11       0.2964
      3 N           1.1656    0.8353   -1.8635 N.am    1  UNL11      -0.2301
      4 N           1.0701   -0.1540   -2.8746 N.pl3   1  UNL11      -0.2641
      5 C           2.2647   -0.8217   -3.2594 C.ar    1  UNL11       0.0466
      6 C           2.2417   -1.7774   -4.2407 C.ar    1  UNL11      -0.0392
      7 C           3.4494   -2.3521   -4.5811 C.ar    1  UNL11      -0.0578
      8 C           4.6353   -1.9934   -3.9704 C.ar    1  UNL11      -0.0315
      9 C           4.6761   -1.0340   -2.9796 C.ar    1  UNL11       0.1234
     10 N           5.8949   -0.6439   -2.3373 N.4     1  UNL11       0.0060
     11 O           6.9934   -1.1379   -2.6245 O.2     1  UNL11      -0.1300
     12 O           5.8245    0.3162   -1.3803 O.2     1  UNL11      -0.3961
     13 C           3.4685   -0.4604   -2.6400 C.ar    1  UNL11      -0.0093
     14 C          -1.1780    0.2802   -1.1281 C.2     1  UNL11       0.2323
     15 O          -2.1639    0.5016   -0.3392 O.2     1  UNL11      -0.2863
     16 C          -1.3843   -0.7618   -2.1218 C.3     1  UNL11       0.1185
     17 C          -2.5559   -1.1780   -2.7427 C.3     1  UNL11       0.0683
     18 N          -2.2817   -2.1353   -3.6506 N.3     1  UNL11       0.3440
     19 C          -0.9582   -2.3760   -3.6569 C.3     1  UNL11       0.0778
     20 C          -0.1163   -3.2319   -4.3474 C.3     1  UNL11       0.0247
     21 C           1.2303   -3.2935   -4.1522 C.3     1  UNL11      -0.0251
     22 C           1.7941   -2.4421   -3.2012 C.3     1  UNL11      -0.0302
     23 C           0.9596   -1.5834   -2.5103 C.3     1  UNL11      -0.0206
     24 C          -0.3878   -1.5336   -2.7173 C.3     1  UNL11       0.0592
     25 H           2.0227    1.4079   -1.7215 H       1  UNL11       0.1731
     26 H           0.1819   -0.3676   -3.2971 H       1  UNL11       0.1700
     27 H           1.3373   -2.0931   -4.7491 H       1  UNL11       0.0636
     28 H           3.4924   -3.1124   -5.3651 H       1  UNL11       0.0619
     29 H           5.6067   -2.4367   -4.2289 H       1  UNL11       0.0640
     30 H           3.4768    0.2909   -1.8633 H       1  UNL11       0.0659
     31 H          -3.5458   -0.7850   -2.5319 H       1  UNL11       0.0934
     32 H          -2.9419   -2.6486   -4.2784 H       1  UNL11       0.2370
     33 H          -0.5890   -3.8802   -5.0862 H       1  UNL11       0.0369
     34 H           1.8714   -3.9723   -4.7065 H       1  UNL11       0.0311
     35 H           2.8477   -2.4599   -3.0055 H       1  UNL11       0.0309
     36 H           1.3784   -0.9091   -1.7513 H       1  UNL11       0.0315
     37 H           4.9972    0.6952   -1.1569 H       1  UNL11       0.3292
@<TRIPOS>BOND
     1     1     2    2
     2     2     3   am
     3     2    14    1
     4     3     4    1
     5     3    25    1
     6     4     5    1
     7     4    26    1
     8     5     6   ar
     9     6     7   ar
    10     6    27    1
    11     7     8   ar
    12     7    28    1
    13     8     9   ar
    14     8    29    1
    15     9    10    1
    16     9    13   ar
    17    10    11    2
    18    10    12    1
    19    13     5   ar
    20    13    30    1
    21    14    15    2
    22    14    16    1
    23    16    17    1
    24    17    18    1
    25    17    31    1
    26    18    19    1
    27    18    32    1
    28    19    20    1
    29    20    21    1
    30    20    33    1
    31    21    22    1
    32    21    34    1
    33    22    23    1
    34    22    35    1
    35    23    24    1
    36    23    36    1
    37    24    16    1
    38    24    19    1
    39    12    37    1
@<TRIPOS>MOLECULE
*****
 37 39 0 0 0
SMALL
GASTEIGER

@<TRIPOS>ATOM
      1 O           0.1983    1.9574   -0.1388 O.2     1  UNL11      -0.2655
      2 C           0.0469    1.0576   -1.0005 C.2     1  UNL11       0.2964
      3 N           1.1656    0.8353   -1.8635 N.am    1  UNL11      -0.2301
      4 N           2.3337    1.6208   -1.6938 N.pl3   1  UNL11      -0.2641
      5 C           3.1221    1.8884   -2.8461 C.ar    1  UNL11       0.0466
      6 C           2.7527    1.3974   -4.0705 C.ar    1  UNL11      -0.0392
      7 C           3.5517    1.7326   -5.1447 C.ar    1  UNL11      -0.0578
      8 C           4.6755    2.5242   -5.0096 C.ar    1  UNL11      -0.0315
      9 C           5.0626    3.0257   -3.7838 C.ar    1  UNL11       0.1234
     10 N           6.2209    3.8519   -3.6224 N.4     1  UNL11       0.0060
     11 O           6.8945    3.8686   -2.5836 O.2     1  UNL11      -0.1300
     12 O           6.5856    4.6380   -4.6671 O.2     1  UNL11      -0.3961
     13 C           4.2635    2.6898   -2.7108 C.ar    1  UNL11      -0.0093
     14 C          -1.1780    0.2802   -1.1281 C.2     1  UNL11       0.2323
     15 O          -1.8428    0.3049   -2.2239 O.2     1  UNL11      -0.2863
     16 C          -1.7250   -0.5609   -0.0749 C.3     1  UNL11       0.1185
     17 C          -1.0728   -1.2500    0.9406 C.3     1  UNL11       0.0683
     18 N          -1.9735   -1.8555    1.7392 N.3     1  UNL11       0.3440
     19 C          -3.2138   -1.5942    1.2886 C.3     1  UNL11       0.0778
     20 C          -4.4966   -1.9419    1.6782 C.3     1  UNL11       0.0247
     21 C          -5.6228   -1.5463    1.0222 C.3     1  UNL11      -0.0251
     22 C          -5.4742   -0.7417   -0.1081 C.3     1  UNL11      -0.0302
     23 C          -4.1965   -0.3888   -0.5009 C.3     1  UNL11      -0.0206
     24 C          -3.0780   -0.7933    0.1670 C.3     1  UNL11       0.0592
     25 H           1.0880    0.1009   -2.5965 H       1  UNL11       0.1731
     26 H           2.5850    1.9714   -0.7844 H       1  UNL11       0.1700
     27 H           1.8804    0.7725   -4.2276 H       1  UNL11       0.0636
     28 H           3.2987    1.3780   -6.1470 H       1  UNL11       0.0619
     29 H           5.3225    2.8045   -5.8521 H       1  UNL11       0.0640
     30 H           4.5505    3.0688   -1.7404 H       1  UNL11       0.0659
     31 H           0.0039   -1.2893    1.0745 H       1  UNL11       0.0934
     32 H          -1.8036   -2.4466    2.5849 H       1  UNL11       0.2370
     33 H          -4.5768   -2.5676    2.5679 H       1  UNL11       0.0369
     34 H          -6.6192   -1.8303    1.3469 H       1  UNL11       0.0311
     35 H          -6.3300   -0.4123   -0.6629 H       1  UNL11       0.0309
     36 H          -4.0532    0.2372   -1.3917 H       1  UNL11       0.0315
     37 H           6.0814    4.6314   -5.4569 H       1  UNL11       0.3292
@<TRIPOS>BOND
     1     1     2    2
     2     2     3   am
     3     2    14    1
     4     3     4    1
     5     3    25    1
     6     4     5    1
     7     4    26    1
     8     5     6   ar
     9     6     7   ar
    10     6    27    1
    11     7     8   ar
    12     7    28    1
    13     8     9   ar
    14     8    29    1
    15     9    10    1
    16     9    13   ar
    17    10    11    2
    18    10    12    1
    19    13     5   ar
    20    13    30    1
    21    14    15    2
    22    14    16    1
    23    16    17    1
    24    17    18    1
    25    17    31    1
    26    18    19    1
    27    18    32    1
    28    19    20    1
    29    20    21    1
    30    20    33    1
    31    21    22    1
    32    21    34    1
    33    22    23    1
    34    22    35    1
    35    23    24    1
    36    23    36    1
    37    24    16    1
    38    24    19    1
    39    12    37    1
@<TRIPOS>MOLECULE
*****
 37 39 0 0 0
SMALL
GASTEIGER

@<TRIPOS>ATOM
      1 O           0.1983    1.9574   -0.1388 O.2     1  UNL11      -0.2655
      2 C           0.0469    1.0576   -1.0005 C.2     1  UNL11       0.2964
      3 N           1.1656    0.8353   -1.8635 N.am    1  UNL11      -0.2301
      4 N           2.3337    1.6208   -1.6938 N.pl3   1  UNL11      -0.2641
      5 C           2.1745    2.9392   -1.1866 C.ar    1  UNL11       0.0466
      6 C           3.1623    3.5189   -0.4350 C.ar    1  UNL11      -0.0392
      7 C           2.9456    4.8144   -0.0112 C.ar    1  UNL11      -0.0578
      8 C           1.7921    5.5085   -0.3201 C.ar    1  UNL11      -0.0315
      9 C           0.7868    4.9392   -1.0746 C.ar    1  UNL11       0.1234
     10 N          -0.4144    5.6426   -1.4103 N.4     1  UNL11       0.0060
     11 O          -0.6347    6.8062   -1.0487 O.2     1  UNL11      -0.1300
     12 O          -1.3363    4.9923   -2.1650 O.2     1  UNL11      -0.3961
     13 C           1.0042    3.6444   -1.4975 C.ar    1  UNL11      -0.0093
     14 C          -1.1780    0.2802   -1.1281 C.2     1  UNL11       0.2323
     15 O          -1.8428    0.3049   -2.2239 O.2     1  UNL11      -0.2863
     16 C          -1.7250   -0.5609   -0.0749 C.3     1  UNL11       0.1185
     17 C          -2.9549   -0.4917    0.5687 C.3     1  UNL11       0.0683
     18 N          -3.0771   -1.5119    1.4404 N.3     1  UNL11       0.3440
     19 C          -1.9631   -2.2650    1.4025 C.3     1  UNL11       0.0778
     20 C          -1.5192   -3.4004    2.0598 C.3     1  UNL11       0.0247
     21 C          -0.3041   -3.9767    1.8437 C.3     1  UNL11      -0.0251
     22 C           0.5420   -3.3885    0.9028 C.3     1  UNL11      -0.0302
     23 C           0.1039   -2.2564    0.2412 C.3     1  UNL11      -0.0206
     24 C          -1.1165   -1.6910    0.4689 C.3     1  UNL11       0.0592
     25 H           1.0880    0.1009   -2.5965 H       1  UNL11       0.1731
     26 H           3.2385    1.2466   -1.9274 H       1  UNL11       0.1700
     27 H           4.0846    3.0158   -0.1663 H       1  UNL11       0.0636
     28 H           3.7045    5.3305    0.5822 H       1  UNL11       0.0619
     29 H           1.6020    6.5404    0.0051 H       1  UNL11       0.0640
     30 H           0.2279    3.1777   -2.0867 H       1  UNL11       0.0659
     31 H          -3.7089    0.2688    0.3905 H       1  UNL11       0.0934
     32 H          -3.8783   -1.7380    2.0733 H       1  UNL11       0.2370
     33 H          -2.2070   -3.8369    2.7851 H       1  UNL11       0.0369
     34 H           0.0225   -4.8682    2.3703 H       1  UNL11       0.0311
     35 H           1.5115   -3.8000    0.7043 H       1  UNL11       0.0309
     36 H           0.7546   -1.7707   -0.4981 H       1  UNL11       0.0315
     37 H          -1.1775    4.1116   -2.4428 H       1  UNL11       0.3292
@<TRIPOS>BOND
     1     1     2    2
     2     2     3   am
     3     2    14    1
     4     3     4    1
     5     3    25    1
     6     4     5    1
     7     4    26    1
     8     5     6   ar
     9     6     7   ar
    10     6    27    1
    11     7     8   ar
    12     7    28    1
    13     8     9   ar
    14     8    29    1
    15     9    10    1
    16     9    13   ar
    17    10    11    2
    18    10    12    1
    19    13     5   ar
    20    13    30    1
    21    14    15    2
    22    14    16    1
    23    16    17    1
    24    17    18    1
    25    17    31    1
    26    18    19    1
    27    18    32    1
    28    19    20    1
    29    20    21    1
    30    20    33    1
    31    21    22    1
    32    21    34    1
    33    22    23    1
    34    22    35    1
    35    23    24    1
    36    23    36    1
    37    24    16    1
    38    24    19    1
    39    12    37    1
@<TRIPOS>MOLECULE
*****
 37 39 0 0 0
SMALL
GASTEIGER

@<TRIPOS>ATOM
      1 O           0.1983    1.9574   -0.1388 O.2     1  UNL11      -0.2655
      2 C           0.0469    1.0576   -1.0005 C.2     1  UNL11       0.2964
      3 N           1.1656    0.8353   -1.8635 N.am    1  UNL11      -0.2301
      4 N           1.0701   -0.1540   -2.8746 N.pl3   1  UNL11      -0.2641
      5 C           0.2264   -1.2711   -2.6273 C.ar    1  UNL11       0.0466
      6 C          -0.4059   -1.9074   -3.6627 C.ar    1  UNL11      -0.0392
      7 C          -1.1782   -3.0055   -3.3425 C.ar    1  UNL11      -0.0578
      8 C          -1.3190   -3.4551   -2.0441 C.ar    1  UNL11      -0.0315
      9 C          -0.6905   -2.8252   -0.9895 C.ar    1  UNL11       0.1234
     10 N          -0.8190   -3.2776    0.3629 N.4     1  UNL11       0.0060
     11 O          -1.5004   -4.2617    0.6800 O.2     1  UNL11      -0.1300
     12 O          -0.1513   -2.5903    1.3243 O.2     1  UNL11      -0.3961
     13 C           0.0809   -1.7276   -1.3106 C.ar    1  UNL11      -0.0093
     14 C          -1.1780    0.2802   -1.1281 C.2     1  UNL11       0.2323
     15 O          -1.8428    0.3049   -2.2239 O.2     1  UNL11      -0.2863
     16 C          -1.7250   -0.5609   -0.0749 C.3     1  UNL11       0.1185
     17 C          -2.9549   -0.4917    0.5687 C.3     1  UNL11       0.0683
     18 N          -3.0771   -1.5119    1.4404 N.3     1  UNL11       0.3440
     19 C          -1.9631   -2.2650    1.4025 C.3     1  UNL11       0.0778
     20 C          -1.5192   -3.4004    2.0598 C.3     1  UNL11       0.0247
     21 C          -0.3041   -3.9767    1.8437 C.3     1  UNL11      -0.0251
     22 C           0.5420   -3.3885    0.9028 C.3     1  UNL11      -0.0302
     23 C           0.1039   -2.2564    0.2412 C.3     1  UNL11      -0.0206
     24 C          -1.1165   -1.6910    0.4689 C.3     1  UNL11       0.0592
     25 H           2.0227    1.4079   -1.7215 H       1  UNL11       0.1731
     26 H           1.5861   -0.0572   -3.7334 H       1  UNL11       0.1700
     27 H          -0.3268   -1.5930   -4.6976 H       1  UNL11       0.0636
     28 H          -1.6968   -3.5585   -4.1297 H       1  UNL11       0.0619
     29 H          -1.9263   -4.3282   -1.7691 H       1  UNL11       0.0640
     30 H           0.5793   -1.2168   -0.4992 H       1  UNL11       0.0659
     31 H          -3.7089    0.2688    0.3905 H       1  UNL11       0.0934
     32 H          -3.8783   -1.7380    2.0733 H       1  UNL11       0.2370
     33 H          -2.2070   -3.8369    2.7851 H       1  UNL11       0.0369
     34 H           0.0225   -4.8682    2.3703 H       1  UNL11       0.0311
     35 H           1.5115   -3.8000    0.7043 H       1  UNL11       0.0309
     36 H           0.7546   -1.7707   -0.4981 H       1  UNL11       0.0315
     37 H           0.3665   -1.8445    1.0929 H       1  UNL11       0.3292
@<TRIPOS>BOND
     1     1     2    2
     2     2     3   am
     3     2    14    1
     4     3     4    1
     5     3    25    1
     6     4     5    1
     7     4    26    1
     8     5     6   ar
     9     6     7   ar
    10     6    27    1
    11     7     8   ar
    12     7    28    1
    13     8     9   ar
    14     8    29    1
    15     9    10    1
    16     9    13   ar
    17    10    11    2
    18    10    12    1
    19    13     5   ar
    20    13    30    1
    21    14    15    2
    22    14    16    1
    23    16    17    1
    24    17    18    1
    25    17    31    1
    26    18    19    1
    27    18    32    1
    28    19    20    1
    29    20    21    1
    30    20    33    1
    31    21    22    1
    32    21    34    1
    33    22    23    1
    34    22    35    1
    35    23    24    1
    36    23    36    1
    37    24    16    1
    38    24    19    1
    39    12    37    1
@<TRIPOS>MOLECULE
*****
 37 39 0 0 0
SMALL
GASTEIGER

@<TRIPOS>ATOM
      1 O           0.1983    1.9574   -0.1388 O.2     1  UNL11      -0.2655
      2 C           0.0469    1.0576   -1.0005 C.2     1  UNL11       0.2964
      3 N           1.1656    0.8353   -1.8635 N.am    1  UNL11      -0.2301
      4 N           1.0701   -0.1540   -2.8746 N.pl3   1  UNL11      -0.2641
      5 C           2.2052   -0.3604   -3.7052 C.ar    1  UNL11       0.0466
      6 C           2.4615   -1.5962   -4.2378 C.ar    1  UNL11      -0.0392
      7 C           3.5625   -1.7046   -5.0629 C.ar    1  UNL11      -0.0578
      8 C           4.3794   -0.6280   -5.3482 C.ar    1  UNL11      -0.0315
      9 C           4.1367    0.6230   -4.8191 C.ar    1  UNL11       0.1234
     10 N           4.9678    1.7532   -5.1057 N.4     1  UNL11       0.0060
     11 O           5.1407    2.6805   -4.3035 O.2     1  UNL11      -0.1300
     12 O           5.5916    1.7882   -6.3108 O.2     1  UNL11      -0.3961
     13 C           3.0362    0.7302   -3.9944 C.ar    1  UNL11      -0.0093
     14 C          -1.1780    0.2802   -1.1281 C.2     1  UNL11       0.2323
     15 O          -1.3135   -0.8158   -0.4771 O.2     1  UNL11      -0.2863
     16 C          -2.3070    0.6656   -1.9603 C.3     1  UNL11       0.1185
     17 C          -3.6259    0.9224   -1.6050 C.3     1  UNL11       0.0683
     18 N          -4.3274    1.3127   -2.6873 N.3     1  UNL11       0.3440
     19 C          -3.5176    1.3243   -3.7614 C.3     1  UNL11       0.0778
     20 C          -3.6699    1.6182   -5.1063 C.3     1  UNL11       0.0247
     21 C          -2.6635    1.5353   -6.0204 C.3     1  UNL11      -0.0251
     22 C          -1.4045    1.1320   -5.5739 C.3     1  UNL11      -0.0302
     23 C          -1.2450    0.8396   -4.2322 C.3     1  UNL11      -0.0206
     24 C          -2.2633    0.9275   -3.3287 C.3     1  UNL11       0.0592
     25 H           2.0227    1.4079   -1.7215 H       1  UNL11       0.1731
     26 H           0.2232   -0.6855   -2.9900 H       1  UNL11       0.1700
     27 H           1.8506   -2.4711   -4.0440 H       1  UNL11       0.0636
     28 H           3.8085   -2.6643   -5.5245 H       1  UNL11       0.0619
     29 H           5.2582   -0.6930   -6.0042 H       1  UNL11       0.0640
     30 H           2.8296    1.7005   -3.5660 H       1  UNL11       0.0659
     31 H          -4.0300    0.8286   -0.6017 H       1  UNL11       0.0934
     32 H          -5.3374    1.5760   -2.7511 H       1  UNL11       0.2370
     33 H          -4.6653    1.9346   -5.4204 H       1  UNL11       0.0369
     34 H          -2.8059    1.7721   -7.0704 H       1  UNL11       0.0311
     35 H          -0.5833    1.0430   -6.2568 H       1  UNL11       0.0309
     36 H          -0.2658    0.5125   -3.8579 H       1  UNL11       0.0315
     37 H           5.4662    1.0906   -6.9236 H       1  UNL11       0.3292
@<TRIPOS>BOND
     1     1     2    2
     2     2     3   am
     3     2    14    1
     4     3     4    1
     5     3    25    1
     6     4     5    1
     7     4    26    1
     8     5     6   ar
     9     6     7   ar
    10     6    27    1
    11     7     8   ar
    12     7    28    1
    13     8     9   ar
    14     8    29    1
    15     9    10    1
    16     9    13   ar
    17    10    11    2
    18    10    12    1
    19    13     5   ar
    20    13    30    1
    21    14    15    2
    22    14    16    1
    23    16    17    1
    24    17    18    1
    25    17    31    1
    26    18    19    1
    27    18    32    1
    28    19    20    1
    29    20    21    1
    30    20    33    1
    31    21    22    1
    32    21    34    1
    33    22    23    1
    34    22    35    1
    35    23    24    1
    36    23    36    1
    37    24    16    1
    38    24    19    1
    39    12    37    1
@<TRIPOS>MOLECULE
*****
 37 39 0 0 0
SMALL
GASTEIGER

@<TRIPOS>ATOM
      1 O           0.1983    1.9574   -0.1388 O.2     1  UNL11      -0.2655
      2 C           0.0469    1.0576   -1.0005 C.2     1  UNL11       0.2964
      3 N           1.1656    0.8353   -1.8635 N.am    1  UNL11      -0.2301
      4 N           2.3337    1.6208   -1.6938 N.pl3   1  UNL11      -0.2641
      5 C           2.6244    2.0972   -0.3864 C.ar    1  UNL11       0.0466
      6 C           1.6128    2.3520    0.5015 C.ar    1  UNL11      -0.0392
      7 C           1.9805    2.7770    1.7621 C.ar    1  UNL11      -0.0578
      8 C           3.3019    2.9441    2.1280 C.ar    1  UNL11      -0.0315
      9 C           4.3329    2.6933    1.2458 C.ar    1  UNL11       0.1234
     10 N           5.7092    2.8553    1.6061 N.4     1  UNL11       0.0060
     11 O           6.0696    3.2302    2.7299 O.2     1  UNL11      -0.1300
     12 O           6.6453    2.5732    0.6645 O.2     1  UNL11      -0.3961
     13 C           3.9643    2.2689   -0.0138 C.ar    1  UNL11      -0.0093
     14 C          -1.1780    0.2802   -1.1281 C.2     1  UNL11       0.2323
     15 O          -1.8428    0.3049   -2.2239 O.2     1  UNL11      -0.2863
     16 C          -1.7250   -0.5609   -0.0749 C.3     1  UNL11       0.1185
     17 C          -1.9769   -1.9277   -0.0703 C.3     1  UNL11       0.0683
     18 N          -2.4274   -2.3093    1.1410 N.3     1  UNL11       0.3440
     19 C          -2.4870   -1.2372    1.9513 C.3     1  UNL11       0.0778
     20 C          -2.8709   -1.0145    3.2632 C.3     1  UNL11       0.0247
     21 C          -2.8508    0.2082    3.8632 C.3     1  UNL11      -0.0251
     22 C          -2.4159    1.3000    3.1110 C.3     1  UNL11      -0.0302
     23 C          -2.0288    1.0842    1.8014 C.3     1  UNL11      -0.0206
     24 C          -2.0547   -0.1470    1.2147 C.3     1  UNL11       0.0592
     25 H           1.0880    0.1009   -2.5965 H       1  UNL11       0.1731
     26 H           2.9287    1.8265   -2.4792 H       1  UNL11       0.1700
     27 H           0.5615    2.2362    0.2620 H       1  UNL11       0.0636
     28 H           1.2158    2.9846    2.5147 H       1  UNL11       0.0619
     29 H           3.6151    3.2784    3.1264 H       1  UNL11       0.0640
     30 H           4.7558    2.0704   -0.7221 H       1  UNL11       0.0659
     31 H          -1.8266   -2.5914   -0.9162 H       1  UNL11       0.0934
     32 H          -2.7042   -3.2647    1.4638 H       1  UNL11       0.2370
     33 H          -3.2010   -1.8900    3.8237 H       1  UNL11       0.0369
     34 H          -3.1554    0.3589    4.8944 H       1  UNL11       0.0311
     35 H          -2.3907    2.2835    3.5361 H       1  UNL11       0.0309
     36 H          -1.6901    1.9287    1.1866 H       1  UNL11       0.0315
     37 H           6.3811    2.2889   -0.1883 H       1  UNL11       0.3292
@<TRIPOS>BOND
     1     1     2    2
     2     2     3   am
     3     2    14    1
     4     3     4    1
     5     3    25    1
     6     4     5    1
     7     4    26    1
     8     5     6   ar
     9     6     7   ar
    10     6    27    1
    11     7     8   ar
    12     7    28    1
    13     8     9   ar
    14     8    29    1
    15     9    10    1
    16     9    13   ar
    17    10    11    2
    18    10    12    1
    19    13     5   ar
    20    13    30    1
    21    14    15    2
    22    14    16    1
    23    16    17    1
    24    17    18    1
    25    17    31    1
    26    18    19    1
    27    18    32    1
    28    19    20    1
    29    20    21    1
    30    20    33    1
    31    21    22    1
    32    21    34    1
    33    22    23    1
    34    22    35    1
    35    23    24    1
    36    23    36    1
    37    24    16    1
    38    24    19    1
    39    12    37    1
@<TRIPOS>MOLECULE
*****
 37 39 0 0 0
SMALL
GASTEIGER

@<TRIPOS>ATOM
      1 O           0.1983    1.9574   -0.1388 O.2     1  UNL11      -0.2655
      2 C           0.0469    1.0576   -1.0005 C.2     1  UNL11       0.2964
      3 N           1.1656    0.8353   -1.8635 N.am    1  UNL11      -0.2301
      4 N           1.0701   -0.1540   -2.8746 N.pl3   1  UNL11      -0.2641
      5 C          -0.2157   -0.4181   -3.4202 C.ar    1  UNL11       0.0466
      6 C          -1.1637    0.5693   -3.4751 C.ar    1  UNL11      -0.0392
      7 C          -2.3737    0.2420   -4.0526 C.ar    1  UNL11      -0.0578
      8 C          -2.6343   -1.0178   -4.5556 C.ar    1  UNL11      -0.0315
      9 C          -1.6915   -2.0241   -4.5070 C.ar    1  UNL11       0.1234
     10 N          -1.9393   -3.3350   -5.0268 N.4     1  UNL11       0.0060
     11 O          -3.0124   -3.6566   -5.5544 O.2     1  UNL11      -0.1300
     12 O          -0.9399   -4.2491   -4.9359 O.2     1  UNL11      -0.3961
     13 C          -0.4826   -1.6959   -3.9295 C.ar    1  UNL11      -0.0093
     14 C          -1.1780    0.2802   -1.1281 C.2     1  UNL11       0.2323
     15 O          -2.1168    0.6839   -1.9020 O.2     1  UNL11      -0.2863
     16 C          -1.4288   -0.9697   -0.4277 C.3     1  UNL11       0.1185
     17 C          -0.6207   -1.6670    0.4625 C.3     1  UNL11       0.0683
     18 N          -1.2738   -2.7504    0.9267 N.3     1  UNL11       0.3440
     19 C          -2.4984   -2.8025    0.3724 C.3     1  UNL11       0.0778
     20 C          -3.5805   -3.6631    0.4543 C.3     1  UNL11       0.0247
     21 C          -4.7385   -3.4955   -0.2431 C.3     1  UNL11      -0.0251
     22 C          -4.8401   -2.3900   -1.0884 C.3     1  UNL11      -0.0302
     23 C          -3.7645   -1.5255   -1.1727 C.3     1  UNL11      -0.0206
     24 C          -2.6110   -1.7072   -0.4675 C.3     1  UNL11       0.0592
     25 H           2.0227    1.4079   -1.7215 H       1  UNL11       0.1731
     26 H           1.8914   -0.6449   -3.1872 H       1  UNL11       0.1700
     27 H          -1.0072    1.5726   -3.0943 H       1  UNL11       0.0636
     28 H          -3.1631    0.9936   -4.1333 H       1  UNL11       0.0619
     29 H          -3.5893   -1.2972   -5.0212 H       1  UNL11       0.0640
     30 H           0.2691   -2.4704   -3.8775 H       1  UNL11       0.0659
     31 H           0.3862   -1.3776    0.7472 H       1  UNL11       0.0934
     32 H          -0.9410   -3.4727    1.6056 H       1  UNL11       0.2370
     33 H          -3.4693   -4.5141    1.1274 H       1  UNL11       0.0369
     34 H          -5.5749   -4.1830   -0.1621 H       1  UNL11       0.0311
     35 H          -5.7277   -2.2201   -1.6645 H       1  UNL11       0.0309
     36 H          -3.8172   -0.6525   -1.8369 H       1  UNL11       0.0315
     37 H          -0.1247   -4.0140   -4.5382 H       1  UNL11       0.3292
@<TRIPOS>BOND
     1     1     2    2
     2     2     3   am
     3     2    14    1
     4     3     4    1
     5     3    25    1
     6     4     5    1
     7     4    26    1
     8     5     6   ar
     9     6     7   ar
    10     6    27    1
    11     7     8   ar
    12     7    28    1
    13     8     9   ar
    14     8    29    1
    15     9    10    1
    16     9    13   ar
    17    10    11    2
    18    10    12    1
    19    13     5   ar
    20    13    30    1
    21    14    15    2
    22    14    16    1
    23    16    17    1
    24    17    18    1
    25    17    31    1
    26    18    19    1
    27    18    32    1
    28    19    20    1
    29    20    21    1
    30    20    33    1
    31    21    22    1
    32    21    34    1
    33    22    23    1
    34    22    35    1
    35    23    24    1
    36    23    36    1
    37    24    16    1
    38    24    19    1
    39    12    37    1
@<TRIPOS>MOLECULE
*****
 37 39 0 0 0
SMALL
GASTEIGER

@<TRIPOS>ATOM
      1 O           0.1983    1.9574   -0.1388 O.2     1  UNL11      -0.2655
      2 C           0.0469    1.0576   -1.0005 C.2     1  UNL11       0.2964
      3 N           1.1656    0.8353   -1.8635 N.am    1  UNL11      -0.2301
      4 N           2.3337    1.6208   -1.6938 N.pl3   1  UNL11      -0.2641
      5 C           2.6244    2.0972   -0.3864 C.ar    1  UNL11       0.0466
      6 C           3.2888    3.2822   -0.2100 C.ar    1  UNL11      -0.0392
      7 C           3.4999    3.6922    1.0908 C.ar    1  UNL11      -0.0578
      8 C           3.0693    2.9541    2.1760 C.ar    1  UNL11      -0.0315
      9 C           2.4002    1.7580    2.0163 C.ar    1  UNL11       0.1234
     10 N           1.9412    0.9799    3.1272 N.4     1  UNL11       0.0060
     11 O           2.1116    1.3242    4.3044 O.2     1  UNL11      -0.1300
     12 O           1.2858   -0.1780    2.8586 O.2     1  UNL11      -0.3961
     13 C           2.1900    1.3490    0.7158 C.ar    1  UNL11      -0.0093
     14 C          -1.1780    0.2802   -1.1281 C.2     1  UNL11       0.2323
     15 O          -2.1639    0.5016   -0.3392 O.2     1  UNL11      -0.2863
     16 C          -1.3843   -0.7618   -2.1218 C.3     1  UNL11       0.1185
     17 C          -0.4626   -1.6098   -2.7244 C.3     1  UNL11       0.0683
     18 N          -1.0962   -2.4719   -3.5436 N.3     1  UNL11       0.3440
     19 C          -2.4185   -2.2267   -3.5103 C.3     1  UNL11       0.0778
     20 C          -3.5352   -2.7624   -4.1301 C.3     1  UNL11       0.0247
     21 C          -4.8045   -2.3104   -3.9305 C.3     1  UNL11      -0.0251
     22 C          -4.9897   -1.2457   -3.0478 C.3     1  UNL11      -0.0302
     23 C          -3.8793   -0.7080   -2.4238 C.3     1  UNL11      -0.0206
     24 C          -2.6140   -1.1721   -2.6343 C.3     1  UNL11       0.0592
     25 H           1.0880    0.1009   -2.5965 H       1  UNL11       0.1731
     26 H           2.9287    1.8265   -2.4792 H       1  UNL11       0.1700
     27 H           3.6463    3.8968   -1.0289 H       1  UNL11       0.0636
     28 H           4.0149    4.6351    1.2909 H       1  UNL11       0.0619
     29 H           3.2250    3.2644    3.2183 H       1  UNL11       0.0640
     30 H           1.6710    0.4128    0.5677 H       1  UNL11       0.0659
     31 H           0.6094   -1.5855   -2.5549 H       1  UNL11       0.0934
     32 H          -0.6873   -3.2296   -4.1371 H       1  UNL11       0.2370
     33 H          -3.3553   -3.5960   -4.8100 H       1  UNL11       0.0369
     34 H          -5.6659   -2.7470   -4.4269 H       1  UNL11       0.0311
     35 H          -5.9684   -0.8491   -2.8647 H       1  UNL11       0.0309
     36 H          -3.9982    0.1356   -1.7308 H       1  UNL11       0.0315
     37 H           1.1526   -0.4458    1.9706 H       1  UNL11       0.3292
@<TRIPOS>BOND
     1     1     2    2
     2     2     3   am
     3     2    14    1
     4     3     4    1
     5     3    25    1
     6     4     5    1
     7     4    26    1
     8     5     6   ar
     9     6     7   ar
    10     6    27    1
    11     7     8   ar
    12     7    28    1
    13     8     9   ar
    14     8    29    1
    15     9    10    1
    16     9    13   ar
    17    10    11    2
    18    10    12    1
    19    13     5   ar
    20    13    30    1
    21    14    15    2
    22    14    16    1
    23    16    17    1
    24    17    18    1
    25    17    31    1
    26    18    19    1
    27    18    32    1
    28    19    20    1
    29    20    21    1
    30    20    33    1
    31    21    22    1
    32    21    34    1
    33    22    23    1
    34    22    35    1
    35    23    24    1
    36    23    36    1
    37    24    16    1
    38    24    19    1
    39    12    37    1
@<TRIPOS>MOLECULE
*****
 37 39 0 0 0
SMALL
GASTEIGER

@<TRIPOS>ATOM
      1 O           0.1983    1.9574   -0.1388 O.2     1  UNL11      -0.2655
      2 C           0.0469    1.0576   -1.0005 C.2     1  UNL11       0.2964
      3 N           1.1656    0.8353   -1.8635 N.am    1  UNL11      -0.2301
      4 N           1.0701   -0.1540   -2.8746 N.pl3   1  UNL11      -0.2641
      5 C           2.2647   -0.8217   -3.2594 C.ar    1  UNL11       0.0466
      6 C           3.2823   -0.9996   -2.3598 C.ar    1  UNL11      -0.0392
      7 C           4.3930   -1.6895   -2.8015 C.ar    1  UNL11      -0.0578
      8 C           4.4913   -2.1835   -4.0877 C.ar    1  UNL11      -0.0315
      9 C           3.4765   -2.0120   -5.0068 C.ar    1  UNL11       0.1234
     10 N           3.5559   -2.5200   -6.3431 N.4     1  UNL11       0.0060
     11 O           4.1982   -3.5367   -6.6380 O.2     1  UNL11      -0.1300
     12 O           2.8849   -1.8494   -7.3140 O.2     1  UNL11      -0.3961
     13 C           2.3670   -1.3221   -4.5643 C.ar    1  UNL11      -0.0093
     14 C          -1.1780    0.2802   -1.1281 C.2     1  UNL11       0.2323
     15 O          -2.1168    0.6839   -1.9020 O.2     1  UNL11      -0.2863
     16 C          -1.4288   -0.9697   -0.4277 C.3     1  UNL11       0.1185
     17 C          -2.0171   -1.1910    0.8119 C.3     1  UNL11       0.0683
     18 N          -2.1100   -2.5143    1.0485 N.3     1  UNL11       0.3440
     19 C          -1.5993   -3.1898    0.0033 C.3     1  UNL11       0.0778
     20 C          -1.4160   -4.5262   -0.3108 C.3     1  UNL11       0.0247
     21 C          -0.8418   -4.9628   -1.4662 C.3     1  UNL11      -0.0251
     22 C          -0.4148   -4.0061   -2.3879 C.3     1  UNL11      -0.0302
     23 C          -0.5971   -2.6704   -2.0816 C.3     1  UNL11      -0.0206
     24 C          -1.1742   -2.2489   -0.9197 C.3     1  UNL11       0.0592
     25 H           2.0227    1.4079   -1.7215 H       1  UNL11       0.1731
     26 H           0.1819   -0.3676   -3.2971 H       1  UNL11       0.1700
     27 H           3.2526   -0.6311   -1.3403 H       1  UNL11       0.0636
     28 H           5.2307   -1.8706   -2.1234 H       1  UNL11       0.0619
     29 H           5.3650   -2.7373   -4.4575 H       1  UNL11       0.0640
     30 H           1.5616   -1.1729   -5.2691 H       1  UNL11       0.0659
     31 H          -2.3578   -0.4123    1.4873 H       1  UNL11       0.0934
     32 H          -2.5021   -3.0022    1.8862 H       1  UNL11       0.2370
     33 H          -1.7651   -5.2472    0.4294 H       1  UNL11       0.0369
     34 H          -0.7094   -6.0166   -1.6919 H       1  UNL11       0.0311
     35 H           0.0509   -4.3002   -3.3073 H       1  UNL11       0.0309
     36 H          -0.2623   -1.8984   -2.7873 H       1  UNL11       0.0315
     37 H           2.3964   -1.0792   -7.0993 H       1  UNL11       0.3292
@<TRIPOS>BOND
     1     1     2    2
     2     2     3   am
     3     2    14    1
     4     3     4    1
     5     3    25    1
     6     4     5    1
     7     4    26    1
     8     5     6   ar
     9     6     7   ar
    10     6    27    1
    11     7     8   ar
    12     7    28    1
    13     8     9   ar
    14     8    29    1
    15     9    10    1
    16     9    13   ar
    17    10    11    2
    18    10    12    1
    19    13     5   ar
    20    13    30    1
    21    14    15    2
    22    14    16    1
    23    16    17    1
    24    17    18    1
    25    17    31    1
    26    18    19    1
    27    18    32    1
    28    19    20    1
    29    20    21    1
    30    20    33    1
    31    21    22    1
    32    21    34    1
    33    22    23    1
    34    22    35    1
    35    23    24    1
    36    23    36    1
    37    24    16    1
    38    24    19    1
    39    12    37    1
@<TRIPOS>MOLECULE
*****
 37 39 0 0 0
SMALL
GASTEIGER

@<TRIPOS>ATOM
      1 O           0.1983    1.9574   -0.1388 O.2     1  UNL11      -0.2655
      2 C           0.0469    1.0576   -1.0005 C.2     1  UNL11       0.2964
      3 N           1.1656    0.8353   -1.8635 N.am    1  UNL11      -0.2301
      4 N           2.3337    1.6208   -1.6938 N.pl3   1  UNL11      -0.2641
      5 C           3.1221    1.8884   -2.8461 C.ar    1  UNL11       0.0466
      6 C           4.2702    2.6290   -2.7462 C.ar    1  UNL11      -0.0392
      7 C           4.9977    2.8128   -3.9046 C.ar    1  UNL11      -0.0578
      8 C           4.6007    2.2829   -5.1168 C.ar    1  UNL11      -0.0315
      9 C           3.4466    1.5360   -5.2354 C.ar    1  UNL11       0.1234
     10 N           3.0197    0.9736   -6.4811 N.4     1  UNL11       0.0060
     11 O           3.6533    1.1174   -7.5352 O.2     1  UNL11      -0.1300
     12 O           1.8726    0.2479   -6.4856 O.2     1  UNL11      -0.3961
     13 C           2.7202    1.3531   -4.0771 C.ar    1  UNL11      -0.0093
     14 C          -1.1780    0.2802   -1.1281 C.2     1  UNL11       0.2323
     15 O          -2.1639    0.5016   -0.3392 O.2     1  UNL11      -0.2863
     16 C          -1.3843   -0.7618   -2.1218 C.3     1  UNL11       0.1185
     17 C          -1.3433   -0.6873   -3.5090 C.3     1  UNL11       0.0683
     18 N          -1.5293   -1.9108   -4.0422 N.3     1  UNL11       0.3440
     19 C          -1.6958   -2.8064   -3.0524 C.3     1  UNL11       0.0778
     20 C          -1.9289   -4.1701   -2.9873 C.3     1  UNL11       0.0247
     21 C          -2.0791   -4.8600   -1.8225 C.3     1  UNL11      -0.0251
     22 C          -1.9911   -4.1501   -0.6245 C.3     1  UNL11      -0.0302
     23 C          -1.7560   -2.7890   -0.6823 C.3     1  UNL11      -0.0206
     24 C          -1.6077   -2.1121   -1.8574 C.3     1  UNL11       0.0592
     25 H           1.0880    0.1009   -2.5965 H       1  UNL11       0.1731
     26 H           2.5850    1.9714   -0.7844 H       1  UNL11       0.1700
     27 H           4.6233    3.0655   -1.8184 H       1  UNL11       0.0636
     28 H           5.9279    3.3859   -3.8819 H       1  UNL11       0.0619
     29 H           5.1668    2.4153   -6.0489 H       1  UNL11       0.0640
     30 H           1.8105    0.7743   -4.1479 H       1  UNL11       0.0659
     31 H          -1.1790    0.2219   -4.0791 H       1  UNL11       0.0934
     32 H          -1.5532   -2.1873   -5.0504 H       1  UNL11       0.2370
     33 H          -1.9874   -4.6949   -3.9417 H       1  UNL11       0.0369
     34 H          -2.2601   -5.9303   -1.7956 H       1  UNL11       0.0311
     35 H          -2.1113   -4.6471    0.3174 H       1  UNL11       0.0309
     36 H          -1.6904   -2.2069    0.2466 H       1  UNL11       0.0315
     37 H           1.3870    0.1342   -5.6923 H       1  UNL11       0.3292
@<TRIPOS>BOND
     1     1     2    2
     2     2     3   am
     3     2    14    1
     4     3     4    1
     5     3    25    1
     6     4     5    1
     7     4    26    1
     8     5     6   ar
     9     6     7   ar
    10     6    27    1
    11     7     8   ar
    12     7    28    1
    13     8     9   ar
    14     8    29    1
    15     9    10    1
    16     9    13   ar
    17    10    11    2
    18    10    12    1
    19    13     5   ar
    20    13    30    1
    21    14    15    2
    22    14    16    1
    23    16    17    1
    24    17    18    1
    25    17    31    1
    26    18    19    1
    27    18    32    1
    28    19    20    1
    29    20    21    1
    30    20    33    1
    31    21    22    1
    32    21    34    1
    33    22    23    1
    34    22    35    1
    35    23    24    1
    36    23    36    1
    37    24    16    1
    38    24    19    1
    39    12    37    1
@<TRIPOS>MOLECULE
*****
 37 39 0 0 0
SMALL
GASTEIGER

@<TRIPOS>ATOM
      1 O           0.1983    1.9574   -0.1388 O.2     1  UNL11      -0.2655
      2 C           0.0469    1.0576   -1.0005 C.2     1  UNL11       0.2964
      3 N           1.1656    0.8353   -1.8635 N.am    1  UNL11      -0.2301
      4 N           1.0701   -0.1540   -2.8746 N.pl3   1  UNL11      -0.2641
      5 C           2.2647   -0.8217   -3.2594 C.ar    1  UNL11       0.0466
      6 C           2.4212   -1.2841   -4.5394 C.ar    1  UNL11      -0.0392
      7 C           3.6244   -1.8885   -4.8424 C.ar    1  UNL11      -0.0578
      8 C           4.6341   -2.0300   -3.9105 C.ar    1  UNL11      -0.0315
      9 C           4.4925   -1.5715   -2.6169 C.ar    1  UNL11       0.1234
     10 N           5.5282   -1.7036   -1.6370 N.4     1  UNL11       0.0060
     11 O           5.2961   -1.8256   -0.4268 O.2     1  UNL11      -0.1300
     12 O           6.8135   -1.7012   -2.0732 O.2     1  UNL11      -0.3961
     13 C           3.2895   -0.9678   -2.3151 C.ar    1  UNL11      -0.0093
     14 C          -1.1780    0.2802   -1.1281 C.2     1  UNL11       0.2323
     15 O          -2.1639    0.5016   -0.3392 O.2     1  UNL11      -0.2863
     16 C          -1.3843   -0.7618   -2.1218 C.3     1  UNL11       0.1185
     17 C          -1.1264   -2.1254   -2.0460 C.3     1  UNL11       0.0683
     18 N          -1.5299   -2.7346   -3.1781 N.3     1  UNL11       0.3440
     19 C          -2.0509   -1.8188   -4.0144 C.3     1  UNL11       0.0778
     20 C          -2.5991   -1.8454   -5.2860 C.3     1  UNL11       0.0247
     21 C          -3.0553   -0.7408   -5.9395 C.3     1  UNL11      -0.0251
     22 C          -2.9660    0.4897   -5.2876 C.3     1  UNL11      -0.0302
     23 C          -2.4221    0.5229   -4.0170 C.3     1  UNL11      -0.0206
     24 C          -1.9694   -0.5927   -3.3756 C.3     1  UNL11       0.0592
     25 H           2.0227    1.4079   -1.7215 H       1  UNL11       0.1731
     26 H           0.1819   -0.3676   -3.2971 H       1  UNL11       0.1700
     27 H           1.6589   -1.1968   -5.3059 H       1  UNL11       0.0636
     28 H           3.8087   -2.2663   -5.8512 H       1  UNL11       0.0619
     29 H           5.5994   -2.5052   -4.1325 H       1  UNL11       0.0640
     30 H           3.1558   -0.6046   -1.3062 H       1  UNL11       0.0659
     31 H          -0.6726   -2.6269   -1.1967 H       1  UNL11       0.0934
     32 H          -1.4750   -3.7481   -3.4299 H       1  UNL11       0.2370
     33 H          -2.6580   -2.8236   -5.7647 H       1  UNL11       0.0369
     34 H          -3.4828   -0.7858   -6.9366 H       1  UNL11       0.0311
     35 H          -3.3034    1.3884   -5.7642 H       1  UNL11       0.0309
     36 H          -2.3339    1.4803   -3.4864 H       1  UNL11       0.0315
     37 H           6.9979   -1.6094   -2.9873 H       1  UNL11       0.3292
@<TRIPOS>BOND
     1     1     2    2
     2     2     3   am
     3     2    14    1
     4     3     4    1
     5     3    25    1
     6     4     5    1
     7     4    26    1
     8     5     6   ar
     9     6     7   ar
    10     6    27    1
    11     7     8   ar
    12     7    28    1
    13     8     9   ar
    14     8    29    1
    15     9    10    1
    16     9    13   ar
    17    10    11    2
    18    10    12    1
    19    13     5   ar
    20    13    30    1
    21    14    15    2
    22    14    16    1
    23    16    17    1
    24    17    18    1
    25    17    31    1
    26    18    19    1
    27    18    32    1
    28    19    20    1
    29    20    21    1
    30    20    33    1
    31    21    22    1
    32    21    34    1
    33    22    23    1
    34    22    35    1
    35    23    24    1
    36    23    36    1
    37    24    16    1
    38    24    19    1
    39    12    37    1
@<TRIPOS>MOLECULE
*****
 37 39 0 0 0
SMALL
GASTEIGER

@<TRIPOS>ATOM
      1 O           0.1983    1.9574   -0.1388 O.2     1  UNL11      -0.2655
      2 C           0.0469    1.0576   -1.0005 C.2     1  UNL11       0.2964
      3 N           1.1656    0.8353   -1.8635 N.am    1  UNL11      -0.2301
      4 N           2.3337    1.6208   -1.6938 N.pl3   1  UNL11      -0.2641
      5 C           3.1221    1.8884   -2.8461 C.ar    1  UNL11       0.0466
      6 C           4.4766    2.0614   -2.7368 C.ar    1  UNL11      -0.0392
      7 C           5.1746    2.2812   -3.9069 C.ar    1  UNL11      -0.0578
      8 C           4.5524    2.3287   -5.1392 C.ar    1  UNL11      -0.0315
      9 C           3.1892    2.1580   -5.2671 C.ar    1  UNL11       0.1234
     10 N           2.5251    2.1986   -6.5350 N.4     1  UNL11       0.0060
     11 O           3.0740    1.8592   -7.5918 O.2     1  UNL11      -0.1300
     12 O           1.2359    2.6225   -6.5587 O.2     1  UNL11      -0.3961
     13 C           2.4925    1.9387   -4.0969 C.ar    1  UNL11      -0.0093
     14 C          -1.1780    0.2802   -1.1281 C.2     1  UNL11       0.2323
     15 O          -2.1639    0.5016   -0.3392 O.2     1  UNL11      -0.2863
     16 C          -1.3843   -0.7618   -2.1218 C.3     1  UNL11       0.1185
     17 C          -2.4984   -1.5592   -2.3549 C.3     1  UNL11       0.0683
     18 N          -2.2819   -2.3537   -3.4215 N.3     1  UNL11       0.3440
     19 C          -1.0524   -2.1142   -3.9119 C.3     1  UNL11       0.0778
     20 C          -0.2940   -2.6157   -4.9567 C.3     1  UNL11       0.0247
     21 C           0.9715   -2.2016   -5.2435 C.3     1  UNL11      -0.0251
     22 C           1.5357   -1.2122   -4.4373 C.3     1  UNL11      -0.0302
     23 C           0.7830   -0.7054   -3.3942 C.3     1  UNL11      -0.0206
     24 C          -0.4837   -1.1308   -3.1198 C.3     1  UNL11       0.0592
     25 H           1.0880    0.1009   -2.5965 H       1  UNL11       0.1731
     26 H           2.5850    1.9714   -0.7844 H       1  UNL11       0.1700
     27 H           5.0105    2.0331   -1.7932 H       1  UNL11       0.0636
     28 H           6.2590    2.4150   -3.8808 H       1  UNL11       0.0619
     29 H           5.0902    2.4995   -6.0818 H       1  UNL11       0.0640
     30 H           1.4229    1.8061   -4.1735 H       1  UNL11       0.0659
     31 H          -3.4115   -1.5402   -1.7679 H       1  UNL11       0.0934
     32 H          -2.9212   -3.0623   -3.8488 H       1  UNL11       0.2370
     33 H          -0.7668   -3.3842   -5.5694 H       1  UNL11       0.0369
     34 H           1.5472   -2.6085   -6.0693 H       1  UNL11       0.0311
     35 H           2.5317   -0.8599   -4.6177 H       1  UNL11       0.0309
     36 H           1.2078    0.0683   -2.7408 H       1  UNL11       0.0315
     37 H           0.8130    2.8811   -5.7635 H       1  UNL11       0.3292
@<TRIPOS>BOND
     1     1     2    2
     2     2     3   am
     3     2    14    1
     4     3     4    1
     5     3    25    1
     6     4     5    1
     7     4    26    1
     8     5     6   ar
     9     6     7   ar
    10     6    27    1
    11     7     8   ar
    12     7    28    1
    13     8     9   ar
    14     8    29    1
    15     9    10    1
    16     9    13   ar
    17    10    11    2
    18    10    12    1
    19    13     5   ar
    20    13    30    1
    21    14    15    2
    22    14    16    1
    23    16    17    1
    24    17    18    1
    25    17    31    1
    26    18    19    1
    27    18    32    1
    28    19    20    1
    29    20    21    1
    30    20    33    1
    31    21    22    1
    32    21    34    1
    33    22    23    1
    34    22    35    1
    35    23    24    1
    36    23    36    1
    37    24    16    1
    38    24    19    1
    39    12    37    1
@<TRIPOS>MOLECULE
*****
 37 39 0 0 0
SMALL
GASTEIGER

@<TRIPOS>ATOM
      1 O           0.1983    1.9574   -0.1388 O.2     1  UNL11      -0.2655
      2 C           0.0469    1.0576   -1.0005 C.2     1  UNL11       0.2964
      3 N           1.1656    0.8353   -1.8635 N.am    1  UNL11      -0.2301
      4 N           2.3337    1.6208   -1.6938 N.pl3   1  UNL11      -0.2641
      5 C           3.5818    1.0282   -2.0287 C.ar    1  UNL11       0.0466
      6 C           4.6166    1.7995   -2.4879 C.ar    1  UNL11      -0.0392
      7 C           5.8062    1.1532   -2.7558 C.ar    1  UNL11      -0.0578
      8 C           5.9633   -0.2074   -2.5763 C.ar    1  UNL11      -0.0315
      9 C           4.9311   -0.9991   -2.1161 C.ar    1  UNL11       0.1234
     10 N           5.0741   -2.4100   -1.9183 N.4     1  UNL11       0.0060
     11 O           4.1330   -3.2047   -2.0445 O.2     1  UNL11      -0.1300
     12 O           6.3039   -2.8791   -1.5865 O.2     1  UNL11      -0.3961
     13 C           3.7426   -0.3521   -1.8488 C.ar    1  UNL11      -0.0093
     14 C          -1.1780    0.2802   -1.1281 C.2     1  UNL11       0.2323
     15 O          -1.8428    0.3049   -2.2239 O.2     1  UNL11      -0.2863
     16 C          -1.7250   -0.5609   -0.0749 C.3     1  UNL11       0.1185
     17 C          -1.9769   -1.9277   -0.0703 C.3     1  UNL11       0.0683
     18 N          -2.4274   -2.3093    1.1410 N.3     1  UNL11       0.3440
     19 C          -2.4870   -1.2372    1.9513 C.3     1  UNL11       0.0778
     20 C          -2.8709   -1.0145    3.2632 C.3     1  UNL11       0.0247
     21 C          -2.8508    0.2082    3.8632 C.3     1  UNL11      -0.0251
     22 C          -2.4159    1.3000    3.1110 C.3     1  UNL11      -0.0302
     23 C          -2.0288    1.0842    1.8014 C.3     1  UNL11      -0.0206
     24 C          -2.0547   -0.1470    1.2147 C.3     1  UNL11       0.0592
     25 H           1.0880    0.1009   -2.5965 H       1  UNL11       0.1731
     26 H           2.2686    2.5639   -1.3482 H       1  UNL11       0.1700
     27 H           4.5427    2.8700   -2.6451 H       1  UNL11       0.0636
     28 H           6.6690    1.7204   -3.1141 H       1  UNL11       0.0619
     29 H           6.9021   -0.7398   -2.7810 H       1  UNL11       0.0640
     30 H           2.9195   -0.9538   -1.4909 H       1  UNL11       0.0659
     31 H          -1.8266   -2.5914   -0.9162 H       1  UNL11       0.0934
     32 H          -2.7042   -3.2647    1.4638 H       1  UNL11       0.2370
     33 H          -3.2010   -1.8900    3.8237 H       1  UNL11       0.0369
     34 H          -3.1554    0.3589    4.8944 H       1  UNL11       0.0311
     35 H          -2.3907    2.2835    3.5361 H       1  UNL11       0.0309
     36 H          -1.6901    1.9287    1.1866 H       1  UNL11       0.0315
     37 H           7.0215   -2.2846   -1.4890 H       1  UNL11       0.3292
@<TRIPOS>BOND
     1     1     2    2
     2     2     3   am
     3     2    14    1
     4     3     4    1
     5     3    25    1
     6     4     5    1
     7     4    26    1
     8     5     6   ar
     9     6     7   ar
    10     6    27    1
    11     7     8   ar
    12     7    28    1
    13     8     9   ar
    14     8    29    1
    15     9    10    1
    16     9    13   ar
    17    10    11    2
    18    10    12    1
    19    13     5   ar
    20    13    30    1
    21    14    15    2
    22    14    16    1
    23    16    17    1
    24    17    18    1
    25    17    31    1
    26    18    19    1
    27    18    32    1
    28    19    20    1
    29    20    21    1
    30    20    33    1
    31    21    22    1
    32    21    34    1
    33    22    23    1
    34    22    35    1
    35    23    24    1
    36    23    36    1
    37    24    16    1
    38    24    19    1
    39    12    37    1
@<TRIPOS>MOLECULE
*****
 37 39 0 0 0
SMALL
GASTEIGER

@<TRIPOS>ATOM
      1 O           0.1983    1.9574   -0.1388 O.2     1  UNL11      -0.2655
      2 C           0.0469    1.0576   -1.0005 C.2     1  UNL11       0.2964
      3 N           1.1656    0.8353   -1.8635 N.am    1  UNL11      -0.2301
      4 N           2.3337    1.6208   -1.6938 N.pl3   1  UNL11      -0.2641
      5 C           2.3275    2.5983   -0.6617 C.ar    1  UNL11       0.0466
      6 C           1.5787    2.4096    0.4699 C.ar    1  UNL11      -0.0392
      7 C           1.6557    3.3882    1.4401 C.ar    1  UNL11      -0.0578
      8 C           2.4448    4.5123    1.2930 C.ar    1  UNL11      -0.0315
      9 C           3.2039    4.7186    0.1594 C.ar    1  UNL11       0.1234
     10 N           4.0323    5.8741   -0.0110 N.4     1  UNL11       0.0060
     11 O           4.2738    6.3696   -1.1198 O.2     1  UNL11      -0.1300
     12 O           4.5602    6.4418    1.1032 O.2     1  UNL11      -0.3961
     13 C           3.1260    3.7401   -0.8097 C.ar    1  UNL11      -0.0093
     14 C          -1.1780    0.2802   -1.1281 C.2     1  UNL11       0.2323
     15 O          -1.2670   -0.6356   -2.0206 O.2     1  UNL11      -0.2863
     16 C          -2.3510    0.4603   -0.2870 C.3     1  UNL11       0.1185
     17 C          -3.5642   -0.2178   -0.2973 C.3     1  UNL11       0.0683
     18 N          -4.3510    0.2299    0.7009 N.3     1  UNL11       0.3440
     19 C          -3.7017    1.1914    1.3817 C.3     1  UNL11       0.0778
     20 C          -3.9978    2.0019    2.4651 C.3     1  UNL11       0.0247
     21 C          -3.1456    2.9376    2.9686 C.3     1  UNL11      -0.0251
     22 C          -1.9002    3.0863    2.3571 C.3     1  UNL11      -0.0302
     23 C          -1.5973    2.2785    1.2768 C.3     1  UNL11      -0.0206
     24 C          -2.4620    1.3455    0.7840 C.3     1  UNL11       0.0592
     25 H           1.0880    0.1009   -2.5965 H       1  UNL11       0.1731
     26 H           3.1332    1.4813   -2.2892 H       1  UNL11       0.1700
     27 H           0.9443    1.5451    0.6318 H       1  UNL11       0.0636
     28 H           1.0883    3.2848    2.3684 H       1  UNL11       0.0619
     29 H           2.5219    5.3006    2.0543 H       1  UNL11       0.0640
     30 H           3.7097    3.8834   -1.7077 H       1  UNL11       0.0659
     31 H          -3.8355   -0.9979   -1.0018 H       1  UNL11       0.0934
     32 H          -5.3175   -0.0756    0.9579 H       1  UNL11       0.2370
     33 H          -4.9774    1.8564    2.9219 H       1  UNL11       0.0369
     34 H          -3.3989    3.5615    3.8204 H       1  UNL11       0.0311
     35 H          -1.1989    3.8151    2.7115 H       1  UNL11       0.0309
     36 H          -0.6267    2.3819    0.7737 H       1  UNL11       0.0315
     37 H           4.3824    6.0732    1.9460 H       1  UNL11       0.3292
@<TRIPOS>BOND
     1     1     2    2
     2     2     3   am
     3     2    14    1
     4     3     4    1
     5     3    25    1
     6     4     5    1
     7     4    26    1
     8     5     6   ar
     9     6     7   ar
    10     6    27    1
    11     7     8   ar
    12     7    28    1
    13     8     9   ar
    14     8    29    1
    15     9    10    1
    16     9    13   ar
    17    10    11    2
    18    10    12    1
    19    13     5   ar
    20    13    30    1
    21    14    15    2
    22    14    16    1
    23    16    17    1
    24    17    18    1
    25    17    31    1
    26    18    19    1
    27    18    32    1
    28    19    20    1
    29    20    21    1
    30    20    33    1
    31    21    22    1
    32    21    34    1
    33    22    23    1
    34    22    35    1
    35    23    24    1
    36    23    36    1
    37    24    16    1
    38    24    19    1
    39    12    37    1
@<TRIPOS>MOLECULE
*****
 37 39 0 0 0
SMALL
GASTEIGER

@<TRIPOS>ATOM
      1 O           0.1983    1.9574   -0.1388 O.2     1  UNL11      -0.2655
      2 C           0.0469    1.0576   -1.0005 C.2     1  UNL11       0.2964
      3 N           1.1656    0.8353   -1.8635 N.am    1  UNL11      -0.2301
      4 N           1.0701   -0.1540   -2.8746 N.pl3   1  UNL11      -0.2641
      5 C           1.8130    0.0497   -4.0694 C.ar    1  UNL11       0.0466
      6 C           1.3561   -0.4406   -5.2642 C.ar    1  UNL11      -0.0392
      7 C           2.1172   -0.1686   -6.3829 C.ar    1  UNL11      -0.0578
      8 C           3.2882    0.5613   -6.3189 C.ar    1  UNL11      -0.0315
      9 C           3.7634    1.0610   -5.1238 C.ar    1  UNL11       0.1234
     10 N           4.9719    1.8239   -5.0360 N.4     1  UNL11       0.0060
     11 O           5.9231    1.6672   -5.8131 O.2     1  UNL11      -0.1300
     12 O           5.0570    2.7605   -4.0572 O.2     1  UNL11      -0.3961
     13 C           3.0020    0.7884   -4.0063 C.ar    1  UNL11      -0.0093
     14 C          -1.1780    0.2802   -1.1281 C.2     1  UNL11       0.2323
     15 O          -1.8428    0.3049   -2.2239 O.2     1  UNL11      -0.2863
     16 C          -1.7250   -0.5609   -0.0749 C.3     1  UNL11       0.1185
     17 C          -1.9769   -1.9277   -0.0703 C.3     1  UNL11       0.0683
     18 N          -2.4274   -2.3093    1.1410 N.3     1  UNL11       0.3440
     19 C          -2.4870   -1.2372    1.9513 C.3     1  UNL11       0.0778
     20 C          -2.8709   -1.0145    3.2632 C.3     1  UNL11       0.0247
     21 C          -2.8508    0.2082    3.8632 C.3     1  UNL11      -0.0251
     22 C          -2.4159    1.3000    3.1110 C.3     1  UNL11      -0.0302
     23 C          -2.0288    1.0842    1.8014 C.3     1  UNL11      -0.0206
     24 C          -2.0547   -0.1470    1.2147 C.3     1  UNL11       0.0592
     25 H           2.0227    1.4079   -1.7215 H       1  UNL11       0.1731
     26 H           0.4937   -0.9680   -2.7391 H       1  UNL11       0.1700
     27 H           0.4440   -1.0184   -5.3658 H       1  UNL11       0.0636
     28 H           1.7951   -0.5254   -7.3644 H       1  UNL11       0.0619
     29 H           3.9063    0.7908   -7.1976 H       1  UNL11       0.0640
     30 H           3.3578    1.1671   -3.0589 H       1  UNL11       0.0659
     31 H          -1.8266   -2.5914   -0.9162 H       1  UNL11       0.0934
     32 H          -2.7042   -3.2647    1.4638 H       1  UNL11       0.2370
     33 H          -3.2010   -1.8900    3.8237 H       1  UNL11       0.0369
     34 H          -3.1554    0.3589    4.8944 H       1  UNL11       0.0311
     35 H          -2.3907    2.2835    3.5361 H       1  UNL11       0.0309
     36 H          -1.6901    1.9287    1.1866 H       1  UNL11       0.0315
     37 H           4.3418    2.8856   -3.4649 H       1  UNL11       0.3292
@<TRIPOS>BOND
     1     1     2    2
     2     2     3   am
     3     2    14    1
     4     3     4    1
     5     3    25    1
     6     4     5    1
     7     4    26    1
     8     5     6   ar
     9     6     7   ar
    10     6    27    1
    11     7     8   ar
    12     7    28    1
    13     8     9   ar
    14     8    29    1
    15     9    10    1
    16     9    13   ar
    17    10    11    2
    18    10    12    1
    19    13     5   ar
    20    13    30    1
    21    14    15    2
    22    14    16    1
    23    16    17    1
    24    17    18    1
    25    17    31    1
    26    18    19    1
    27    18    32    1
    28    19    20    1
    29    20    21    1
    30    20    33    1
    31    21    22    1
    32    21    34    1
    33    22    23    1
    34    22    35    1
    35    23    24    1
    36    23    36    1
    37    24    16    1
    38    24    19    1
    39    12    37    1
@<TRIPOS>MOLECULE
*****
 37 39 0 0 0
SMALL
GASTEIGER

@<TRIPOS>ATOM
      1 O           0.1983    1.9574   -0.1388 O.2     1  UNL11      -0.2655
      2 C           0.0469    1.0576   -1.0005 C.2     1  UNL11       0.2964
      3 N           1.1656    0.8353   -1.8635 N.am    1  UNL11      -0.2301
      4 N           1.0701   -0.1540   -2.8746 N.pl3   1  UNL11      -0.2641
      5 C           1.8130    0.0497   -4.0694 C.ar    1  UNL11       0.0466
      6 C           2.2837   -1.0187   -4.7861 C.ar    1  UNL11      -0.0392
      7 C           2.9640   -0.7369   -5.9533 C.ar    1  UNL11      -0.0578
      8 C           3.1709    0.5562   -6.3927 C.ar    1  UNL11      -0.0315
      9 C           2.7050    1.6436   -5.6825 C.ar    1  UNL11       0.1234
     10 N           2.9042    2.9915   -6.1226 N.4     1  UNL11       0.0060
     11 O           3.0117    3.9447   -5.3395 O.2     1  UNL11      -0.1300
     12 O           2.9842    3.2135   -7.4593 O.2     1  UNL11      -0.3961
     13 C           2.0254    1.3608   -4.5159 C.ar    1  UNL11      -0.0093
     14 C          -1.1780    0.2802   -1.1281 C.2     1  UNL11       0.2323
     15 O          -1.8428    0.3049   -2.2239 O.2     1  UNL11      -0.2863
     16 C          -1.7250   -0.5609   -0.0749 C.3     1  UNL11       0.1185
     17 C          -1.9769   -1.9277   -0.0703 C.3     1  UNL11       0.0683
     18 N          -2.4274   -2.3093    1.1410 N.3     1  UNL11       0.3440
     19 C          -2.4870   -1.2372    1.9513 C.3     1  UNL11       0.0778
     20 C          -2.8709   -1.0145    3.2632 C.3     1  UNL11       0.0247
     21 C          -2.8508    0.2082    3.8632 C.3     1  UNL11      -0.0251
     22 C          -2.4159    1.3000    3.1110 C.3     1  UNL11      -0.0302
     23 C          -2.0288    1.0842    1.8014 C.3     1  UNL11      -0.0206
     24 C          -2.0547   -0.1470    1.2147 C.3     1  UNL11       0.0592
     25 H           2.0227    1.4079   -1.7215 H       1  UNL11       0.1731
     26 H           0.4937   -0.9680   -2.7391 H       1  UNL11       0.1700
     27 H           2.1471   -2.0510   -4.4829 H       1  UNL11       0.0636
     28 H           3.3522   -1.5506   -6.5710 H       1  UNL11       0.0619
     29 H           3.7070    0.8012   -7.3197 H       1  UNL11       0.0640
     30 H           1.6550    2.1979   -3.9419 H       1  UNL11       0.0659
     31 H          -1.8266   -2.5914   -0.9162 H       1  UNL11       0.0934
     32 H          -2.7042   -3.2647    1.4638 H       1  UNL11       0.2370
     33 H          -3.2010   -1.8900    3.8237 H       1  UNL11       0.0369
     34 H          -3.1554    0.3589    4.8944 H       1  UNL11       0.0311
     35 H          -2.3907    2.2835    3.5361 H       1  UNL11       0.0309
     36 H          -1.6901    1.9287    1.1866 H       1  UNL11       0.0315
     37 H           2.9038    2.4978   -8.0587 H       1  UNL11       0.3292
@<TRIPOS>BOND
     1     1     2    2
     2     2     3   am
     3     2    14    1
     4     3     4    1
     5     3    25    1
     6     4     5    1
     7     4    26    1
     8     5     6   ar
     9     6     7   ar
    10     6    27    1
    11     7     8   ar
    12     7    28    1
    13     8     9   ar
    14     8    29    1
    15     9    10    1
    16     9    13   ar
    17    10    11    2
    18    10    12    1
    19    13     5   ar
    20    13    30    1
    21    14    15    2
    22    14    16    1
    23    16    17    1
    24    17    18    1
    25    17    31    1
    26    18    19    1
    27    18    32    1
    28    19    20    1
    29    20    21    1
    30    20    33    1
    31    21    22    1
    32    21    34    1
    33    22    23    1
    34    22    35    1
    35    23    24    1
    36    23    36    1
    37    24    16    1
    38    24    19    1
    39    12    37    1
@<TRIPOS>MOLECULE
*****
 37 39 0 0 0
SMALL
GASTEIGER

@<TRIPOS>ATOM
      1 O           0.1983    1.9574   -0.1388 O.2     1  UNL11      -0.2655
      2 C           0.0469    1.0576   -1.0005 C.2     1  UNL11       0.2964
      3 N           1.1656    0.8353   -1.8635 N.am    1  UNL11      -0.2301
      4 N           2.3337    1.6208   -1.6938 N.pl3   1  UNL11      -0.2641
      5 C           2.3275    2.5983   -0.6617 C.ar    1  UNL11       0.0466
      6 C           3.0587    3.7495   -0.7901 C.ar    1  UNL11      -0.0392
      7 C           2.9701    4.6639    0.2399 C.ar    1  UNL11      -0.0578
      8 C           2.1865    4.4442    1.3559 C.ar    1  UNL11      -0.0315
      9 C           1.4449    3.2898    1.5019 C.ar    1  UNL11       0.1234
     10 N           0.6225    3.0444    2.6481 N.4     1  UNL11       0.0060
     11 O           0.3989    1.9069    3.0832 O.2     1  UNL11      -0.1300
     12 O           0.0797    4.1181    3.2767 O.2     1  UNL11      -0.3961
     13 C           1.5344    2.3765    0.4720 C.ar    1  UNL11      -0.0093
     14 C          -1.1780    0.2802   -1.1281 C.2     1  UNL11       0.2323
     15 O          -1.8428    0.3049   -2.2239 O.2     1  UNL11      -0.2863
     16 C          -1.7250   -0.5609   -0.0749 C.3     1  UNL11       0.1185
     17 C          -2.8657   -1.3549   -0.0744 C.3     1  UNL11       0.0683
     18 N          -2.9642   -2.0196    1.0936 N.3     1  UNL11       0.3440
     19 C          -1.9224   -1.6939    1.8798 C.3     1  UNL11       0.0778
     20 C          -1.5052   -2.0387    3.1546 C.3     1  UNL11       0.0247
     21 C          -0.3840   -1.5415    3.7471 C.3     1  UNL11      -0.0251
     22 C           0.3903   -0.6324    3.0252 C.3     1  UNL11      -0.0302
     23 C          -0.0191   -0.2860    1.7510 C.3     1  UNL11      -0.0206
     24 C          -1.1451   -0.7929    1.1713 C.3     1  UNL11       0.0592
     25 H           1.0880    0.1009   -2.5965 H       1  UNL11       0.1731
     26 H           3.1332    1.4813   -2.2892 H       1  UNL11       0.1700
     27 H           3.6882    3.9677   -1.6459 H       1  UNL11       0.0636
     28 H           3.5233    5.6049    0.1859 H       1  UNL11       0.0619
     29 H           2.1003    5.1603    2.1846 H       1  UNL11       0.0640
     30 H           0.9647    1.4634    0.5675 H       1  UNL11       0.0659
     31 H          -3.5702   -1.4332   -0.8967 H       1  UNL11       0.0934
     32 H          -3.7037   -2.6914    1.4026 H       1  UNL11       0.2370
     33 H          -2.1308   -2.7546    3.6890 H       1  UNL11       0.0369
     34 H          -0.0754   -1.8273    4.7481 H       1  UNL11       0.0311
     35 H           1.2766   -0.2069    3.4519 H       1  UNL11       0.0309
     36 H           0.5691    0.4334    1.1658 H       1  UNL11       0.0315
     37 H           0.2439    4.9823    2.9540 H       1  UNL11       0.3292
@<TRIPOS>BOND
     1     1     2    2
     2     2     3   am
     3     2    14    1
     4     3     4    1
     5     3    25    1
     6     4     5    1
     7     4    26    1
     8     5     6   ar
     9     6     7   ar
    10     6    27    1
    11     7     8   ar
    12     7    28    1
    13     8     9   ar
    14     8    29    1
    15     9    10    1
    16     9    13   ar
    17    10    11    2
    18    10    12    1
    19    13     5   ar
    20    13    30    1
    21    14    15    2
    22    14    16    1
    23    16    17    1
    24    17    18    1
    25    17    31    1
    26    18    19    1
    27    18    32    1
    28    19    20    1
    29    20    21    1
    30    20    33    1
    31    21    22    1
    32    21    34    1
    33    22    23    1
    34    22    35    1
    35    23    24    1
    36    23    36    1
    37    24    16    1
    38    24    19    1
    39    12    37    1
