@<TRIPOS>MOLECULE
*****
 35 37 0 0 0
SMALL
GASTEIGER

@<TRIPOS>ATOM
      1 N           1.5740    4.8720   -1.8755 N.am    1  UNL11      -0.3253
      2 C           2.8356    4.2566   -1.6859 C.2     1  UNL11       0.2416
      3 O           3.8596    4.9293   -1.3746 O.2     1  UNL11      -0.2704
      4 C           2.9245    2.8104   -1.8610 C.ar    1  UNL11       0.0400
      5 C           4.0794    2.2031   -2.3027 C.ar    1  UNL11      -0.0494
      6 C           4.1511    0.8488   -2.4628 C.ar    1  UNL11      -0.0576
      7 C           3.0333    0.1004   -2.1701 C.ar    1  UNL11      -0.0192
      8 C           1.8558    0.6588   -1.7260 C.ar    1  UNL11       0.1326
      9 O           0.7881   -0.1818   -1.4592 O.3     1  UNL11      -0.4236
     10 C          -0.1653    0.1050   -0.4907 C.ar    1  UNL11       0.3239
     11 N           0.2225    0.8363    0.5748 N.ar    1  UNL11      -0.2030
     12 C          -0.6176    1.1685    1.5650 C.ar    1  UNL11       0.0350
     13 C          -1.9409    0.7161    1.4455 C.ar    1  UNL11      -0.0173
     14 C          -2.3671   -0.0285    0.3760 C.ar    1  UNL11       0.0778
     15 C          -3.7319   -0.4982    0.2473 C.ar    1  UNL11       0.0006
     16 C          -4.5540   -0.7869    1.2982 C.ar    1  UNL11      -0.0526
     17 C          -5.8689   -1.2391    1.1055 C.ar    1  UNL11      -0.0611
     18 C          -6.3638   -1.4032   -0.1512 C.ar    1  UNL11      -0.0617
     19 C          -5.5562   -1.1193   -1.2292 C.ar    1  UNL11      -0.0611
     20 C          -4.2650   -0.6754   -1.0356 C.ar    1  UNL11      -0.0526
     21 N          -1.4370   -0.3172   -0.5841 N.ar    1  UNL11      -0.1946
     22 C           1.8116    2.0263   -1.5735 C.ar    1  UNL11      -0.0071
     23 H           1.4628    5.6558   -2.5851 H       1  UNL11       0.1453
     24 H           0.7369    4.5885   -1.3444 H       1  UNL11       0.1453
     25 H           4.9484    2.8407   -2.5244 H       1  UNL11       0.0625
     26 H           5.0428    0.3559   -2.8061 H       1  UNL11       0.0619
     27 H           3.0692   -0.9675   -2.2896 H       1  UNL11       0.0654
     28 H          -0.3281    1.7549    2.4303 H       1  UNL11       0.0832
     29 H          -2.6449    0.9759    2.2434 H       1  UNL11       0.0654
     30 H          -4.1959   -0.6687    2.2988 H       1  UNL11       0.0624
     31 H          -6.5090   -1.4641    1.9577 H       1  UNL11       0.0618
     32 H          -7.3843   -1.7543   -0.2593 H       1  UNL11       0.0618
     33 H          -5.9789   -1.2598   -2.2281 H       1  UNL11       0.0618
     34 H          -3.6440   -0.4571   -1.8792 H       1  UNL11       0.0624
     35 H           0.9040    2.4926   -1.2277 H       1  UNL11       0.0662
@<TRIPOS>BOND
     1     1     2   am
     2     1    23    1
     3     1    24    1
     4     2     3    2
     5     2     4    1
     6     4     5   ar
     7     5     6   ar
     8     5    25    1
     9     6     7   ar
    10     6    26    1
    11     7     8   ar
    12     7    27    1
    13     8     9    1
    14     8    22   ar
    15     9    10    1
    16    10    11   ar
    17    11    12   ar
    18    12    13   ar
    19    12    28    1
    20    13    14   ar
    21    13    29    1
    22    14    15    1
    23    14    21   ar
    24    15    16   ar
    25    16    17   ar
    26    16    30    1
    27    17    18   ar
    28    17    31    1
    29    18    19   ar
    30    18    32    1
    31    19    20   ar
    32    19    33    1
    33    20    15   ar
    34    20    34    1
    35    21    10   ar
    36    22     4   ar
    37    22    35    1
@<TRIPOS>MOLECULE
*****
 35 37 0 0 0
SMALL
GASTEIGER

@<TRIPOS>ATOM
      1 N           2.9371   -2.3163   -5.6014 N.am    1  UNL11      -0.3253
      2 C           1.5569   -2.1500   -5.8726 C.2     1  UNL11       0.2416
      3 O           0.9987   -2.7341   -6.8449 O.2     1  UNL11      -0.2704
      4 C           0.7868   -1.2777   -4.9916 C.ar    1  UNL11       0.0400
      5 C          -0.3047   -0.5699   -5.4451 C.ar    1  UNL11      -0.0494
      6 C          -1.0178    0.2434   -4.6115 C.ar    1  UNL11      -0.0576
      7 C          -0.6166    0.3392   -3.2981 C.ar    1  UNL11      -0.0192
      8 C           0.4664   -0.3468   -2.7960 C.ar    1  UNL11       0.1326
      9 O           0.7881   -0.1818   -1.4592 O.3     1  UNL11      -0.4236
     10 C          -0.1653    0.1050   -0.4907 C.ar    1  UNL11       0.3239
     11 N           0.2225    0.8363    0.5748 N.ar    1  UNL11      -0.2030
     12 C          -0.6176    1.1685    1.5650 C.ar    1  UNL11       0.0350
     13 C          -1.9409    0.7161    1.4455 C.ar    1  UNL11      -0.0173
     14 C          -2.3671   -0.0285    0.3760 C.ar    1  UNL11       0.0778
     15 C          -3.7319   -0.4982    0.2473 C.ar    1  UNL11       0.0006
     16 C          -4.0979   -1.6508   -0.3861 C.ar    1  UNL11      -0.0526
     17 C          -5.4405   -2.0504   -0.4762 C.ar    1  UNL11      -0.0611
     18 C          -6.4245   -1.2881    0.0731 C.ar    1  UNL11      -0.0617
     19 C          -6.0835   -0.1207    0.7179 C.ar    1  UNL11      -0.0611
     20 C          -4.7633    0.2684    0.8042 C.ar    1  UNL11      -0.0526
     21 N          -1.4370   -0.3172   -0.5841 N.ar    1  UNL11      -0.1946
     22 C           1.1672   -1.1595   -3.6584 C.ar    1  UNL11      -0.0071
     23 H           3.6595   -2.0923   -6.3485 H       1  UNL11       0.1453
     24 H           3.2833   -2.6528   -4.6903 H       1  UNL11       0.1453
     25 H          -0.5892   -0.6772   -6.5026 H       1  UNL11       0.0625
     26 H          -1.8722    0.8037   -4.9459 H       1  UNL11       0.0619
     27 H          -1.1647    0.9742   -2.6257 H       1  UNL11       0.0654
     28 H          -0.3281    1.7549    2.4303 H       1  UNL11       0.0832
     29 H          -2.6449    0.9759    2.2434 H       1  UNL11       0.0654
     30 H          -3.3490   -2.2727   -0.8286 H       1  UNL11       0.0624
     31 H          -5.7118   -2.9740   -0.9861 H       1  UNL11       0.0618
     32 H          -7.4499   -1.6302   -0.0172 H       1  UNL11       0.0618
     33 H          -6.8939    0.4730    1.1504 H       1  UNL11       0.0618
     34 H          -4.5069    1.1774    1.3071 H       1  UNL11       0.0624
     35 H           2.0196   -1.7092   -3.2950 H       1  UNL11       0.0662
@<TRIPOS>BOND
     1     1     2   am
     2     1    23    1
     3     1    24    1
     4     2     3    2
     5     2     4    1
     6     4     5   ar
     7     5     6   ar
     8     5    25    1
     9     6     7   ar
    10     6    26    1
    11     7     8   ar
    12     7    27    1
    13     8     9    1
    14     8    22   ar
    15     9    10    1
    16    10    11   ar
    17    11    12   ar
    18    12    13   ar
    19    12    28    1
    20    13    14   ar
    21    13    29    1
    22    14    15    1
    23    14    21   ar
    24    15    16   ar
    25    16    17   ar
    26    16    30    1
    27    17    18   ar
    28    17    31    1
    29    18    19   ar
    30    18    32    1
    31    19    20   ar
    32    19    33    1
    33    20    15   ar
    34    20    34    1
    35    21    10   ar
    36    22     4   ar
    37    22    35    1
@<TRIPOS>MOLECULE
*****
 35 37 0 0 0
SMALL
GASTEIGER

@<TRIPOS>ATOM
      1 N           3.6491   -1.0891    2.7029 N.am    1  UNL11      -0.3253
      2 C           4.4514   -1.3532    1.5659 C.2     1  UNL11       0.2416
      3 O           5.5404   -1.9885    1.6579 O.2     1  UNL11      -0.2704
      4 C           3.9840   -0.8680    0.2713 C.ar    1  UNL11       0.0400
      5 C           4.8612   -0.5111   -0.7292 C.ar    1  UNL11      -0.0494
      6 C           4.4124   -0.0583   -1.9369 C.ar    1  UNL11      -0.0576
      7 C           3.0526    0.0333   -2.1312 C.ar    1  UNL11      -0.0192
      8 C           2.1350   -0.3105   -1.1642 C.ar    1  UNL11       0.1326
      9 O           0.7881   -0.1818   -1.4592 O.3     1  UNL11      -0.4236
     10 C          -0.1653    0.1050   -0.4907 C.ar    1  UNL11       0.3239
     11 N           0.2225    0.8363    0.5748 N.ar    1  UNL11      -0.2030
     12 C          -0.6176    1.1685    1.5650 C.ar    1  UNL11       0.0350
     13 C          -1.9409    0.7161    1.4455 C.ar    1  UNL11      -0.0173
     14 C          -2.3671   -0.0285    0.3760 C.ar    1  UNL11       0.0778
     15 C          -3.7319   -0.4982    0.2473 C.ar    1  UNL11       0.0006
     16 C          -4.0979   -1.6508   -0.3861 C.ar    1  UNL11      -0.0526
     17 C          -5.4405   -2.0504   -0.4762 C.ar    1  UNL11      -0.0611
     18 C          -6.4245   -1.2881    0.0731 C.ar    1  UNL11      -0.0617
     19 C          -6.0835   -0.1207    0.7179 C.ar    1  UNL11      -0.0611
     20 C          -4.7633    0.2684    0.8042 C.ar    1  UNL11      -0.0526
     21 N          -1.4370   -0.3172   -0.5841 N.ar    1  UNL11      -0.1946
     22 C           2.6152   -0.7639    0.0438 C.ar    1  UNL11      -0.0071
     23 H           4.0575   -0.5712    3.5368 H       1  UNL11       0.1453
     24 H           2.6624   -1.3827    2.7618 H       1  UNL11       0.1453
     25 H           5.9396   -0.6008   -0.5295 H       1  UNL11       0.0625
     26 H           5.0805    0.2249   -2.7301 H       1  UNL11       0.0619
     27 H           2.6789    0.3875   -3.0751 H       1  UNL11       0.0654
     28 H          -0.3281    1.7549    2.4303 H       1  UNL11       0.0832
     29 H          -2.6449    0.9759    2.2434 H       1  UNL11       0.0654
     30 H          -3.3490   -2.2727   -0.8286 H       1  UNL11       0.0624
     31 H          -5.7118   -2.9740   -0.9861 H       1  UNL11       0.0618
     32 H          -7.4499   -1.6302   -0.0172 H       1  UNL11       0.0618
     33 H          -6.8939    0.4730    1.1504 H       1  UNL11       0.0618
     34 H          -4.5069    1.1774    1.3071 H       1  UNL11       0.0624
     35 H           1.9217   -1.0407    0.8205 H       1  UNL11       0.0662
@<TRIPOS>BOND
     1     1     2   am
     2     1    23    1
     3     1    24    1
     4     2     3    2
     5     2     4    1
     6     4     5   ar
     7     5     6   ar
     8     5    25    1
     9     6     7   ar
    10     6    26    1
    11     7     8   ar
    12     7    27    1
    13     8     9    1
    14     8    22   ar
    15     9    10    1
    16    10    11   ar
    17    11    12   ar
    18    12    13   ar
    19    12    28    1
    20    13    14   ar
    21    13    29    1
    22    14    15    1
    23    14    21   ar
    24    15    16   ar
    25    16    17   ar
    26    16    30    1
    27    17    18   ar
    28    17    31    1
    29    18    19   ar
    30    18    32    1
    31    19    20   ar
    32    19    33    1
    33    20    15   ar
    34    20    34    1
    35    21    10   ar
    36    22     4   ar
    37    22    35    1
@<TRIPOS>MOLECULE
*****
 35 37 0 0 0
SMALL
GASTEIGER

@<TRIPOS>ATOM
      1 N           3.3077    1.4876   -5.6071 N.am    1  UNL11      -0.3253
      2 C           4.1347    1.7192   -4.4807 C.2     1  UNL11       0.2416
      3 O           5.3627    1.9918   -4.6065 O.2     1  UNL11      -0.2704
      4 C           3.5268    1.6341   -3.1567 C.ar    1  UNL11       0.0400
      5 C           3.9847    2.3882   -2.0986 C.ar    1  UNL11      -0.0494
      6 C           3.4080    2.3004   -0.8638 C.ar    1  UNL11      -0.0576
      7 C           2.3506    1.4339   -0.7014 C.ar    1  UNL11      -0.0192
      8 C           1.8558    0.6588   -1.7260 C.ar    1  UNL11       0.1326
      9 O           0.7881   -0.1818   -1.4592 O.3     1  UNL11      -0.4236
     10 C          -0.1653    0.1050   -0.4907 C.ar    1  UNL11       0.3239
     11 N           0.2225    0.8363    0.5748 N.ar    1  UNL11      -0.2030
     12 C          -0.6176    1.1685    1.5650 C.ar    1  UNL11       0.0350
     13 C          -1.9409    0.7161    1.4455 C.ar    1  UNL11      -0.0173
     14 C          -2.3671   -0.0285    0.3760 C.ar    1  UNL11       0.0778
     15 C          -3.7319   -0.4982    0.2473 C.ar    1  UNL11       0.0006
     16 C          -4.0979   -1.6508   -0.3861 C.ar    1  UNL11      -0.0526
     17 C          -5.4405   -2.0504   -0.4762 C.ar    1  UNL11      -0.0611
     18 C          -6.4245   -1.2881    0.0731 C.ar    1  UNL11      -0.0617
     19 C          -6.0835   -0.1207    0.7179 C.ar    1  UNL11      -0.0611
     20 C          -4.7633    0.2684    0.8042 C.ar    1  UNL11      -0.0526
     21 N          -1.4370   -0.3172   -0.5841 N.ar    1  UNL11      -0.1946
     22 C           2.4561    0.7674   -2.9602 C.ar    1  UNL11      -0.0071
     23 H           3.5606    0.7305   -6.3093 H       1  UNL11       0.1453
     24 H           2.4501    2.0324   -5.7827 H       1  UNL11       0.1453
     25 H           4.8322    3.0676   -2.2746 H       1  UNL11       0.0625
     26 H           3.7504    2.8802   -0.0258 H       1  UNL11       0.0619
     27 H           1.8827    1.3500    0.2629 H       1  UNL11       0.0654
     28 H          -0.3281    1.7549    2.4303 H       1  UNL11       0.0832
     29 H          -2.6449    0.9759    2.2434 H       1  UNL11       0.0654
     30 H          -3.3490   -2.2727   -0.8286 H       1  UNL11       0.0624
     31 H          -5.7118   -2.9740   -0.9861 H       1  UNL11       0.0618
     32 H          -7.4499   -1.6302   -0.0172 H       1  UNL11       0.0618
     33 H          -6.8939    0.4730    1.1504 H       1  UNL11       0.0618
     34 H          -4.5069    1.1774    1.3071 H       1  UNL11       0.0624
     35 H           2.0913    0.1736   -3.7819 H       1  UNL11       0.0662
@<TRIPOS>BOND
     1     1     2   am
     2     1    23    1
     3     1    24    1
     4     2     3    2
     5     2     4    1
     6     4     5   ar
     7     5     6   ar
     8     5    25    1
     9     6     7   ar
    10     6    26    1
    11     7     8   ar
    12     7    27    1
    13     8     9    1
    14     8    22   ar
    15     9    10    1
    16    10    11   ar
    17    11    12   ar
    18    12    13   ar
    19    12    28    1
    20    13    14   ar
    21    13    29    1
    22    14    15    1
    23    14    21   ar
    24    15    16   ar
    25    16    17   ar
    26    16    30    1
    27    17    18   ar
    28    17    31    1
    29    18    19   ar
    30    18    32    1
    31    19    20   ar
    32    19    33    1
    33    20    15   ar
    34    20    34    1
    35    21    10   ar
    36    22     4   ar
    37    22    35    1
@<TRIPOS>MOLECULE
*****
 35 37 0 0 0
SMALL
GASTEIGER

@<TRIPOS>ATOM
      1 N           2.6540   -2.8530   -5.3174 N.am    1  UNL11      -0.3253
      2 C           1.5569   -2.1500   -5.8726 C.2     1  UNL11       0.2416
      3 O           1.2452   -2.2668   -7.0922 O.2     1  UNL11      -0.2704
      4 C           0.7868   -1.2777   -4.9916 C.ar    1  UNL11       0.0400
      5 C          -0.3047   -0.5699   -5.4451 C.ar    1  UNL11      -0.0494
      6 C          -1.0178    0.2434   -4.6115 C.ar    1  UNL11      -0.0576
      7 C          -0.6166    0.3392   -3.2981 C.ar    1  UNL11      -0.0192
      8 C           0.4664   -0.3468   -2.7960 C.ar    1  UNL11       0.1326
      9 O           0.7881   -0.1818   -1.4592 O.3     1  UNL11      -0.4236
     10 C          -0.1653    0.1050   -0.4907 C.ar    1  UNL11       0.3239
     11 N           0.2225    0.8363    0.5748 N.ar    1  UNL11      -0.2030
     12 C          -0.6176    1.1685    1.5650 C.ar    1  UNL11       0.0350
     13 C          -1.9409    0.7161    1.4455 C.ar    1  UNL11      -0.0173
     14 C          -2.3671   -0.0285    0.3760 C.ar    1  UNL11       0.0778
     15 C          -3.7319   -0.4982    0.2473 C.ar    1  UNL11       0.0006
     16 C          -4.8236    0.1453    0.7549 C.ar    1  UNL11      -0.0526
     17 C          -6.1221   -0.3636    0.5953 C.ar    1  UNL11      -0.0611
     18 C          -6.3279   -1.5274   -0.0788 C.ar    1  UNL11      -0.0617
     19 C          -5.2445   -2.1970   -0.6012 C.ar    1  UNL11      -0.0611
     20 C          -3.9706   -1.6937   -0.4422 C.ar    1  UNL11      -0.0526
     21 N          -1.4370   -0.3172   -0.5841 N.ar    1  UNL11      -0.1946
     22 C           1.1672   -1.1595   -3.6584 C.ar    1  UNL11      -0.0071
     23 H           3.6258   -2.7425   -5.7342 H       1  UNL11       0.1453
     24 H           2.5523   -3.4829   -4.5074 H       1  UNL11       0.1453
     25 H          -0.5892   -0.6772   -6.5026 H       1  UNL11       0.0625
     26 H          -1.8722    0.8037   -4.9459 H       1  UNL11       0.0619
     27 H          -1.1647    0.9742   -2.6257 H       1  UNL11       0.0654
     28 H          -0.3281    1.7549    2.4303 H       1  UNL11       0.0832
     29 H          -2.6449    0.9759    2.2434 H       1  UNL11       0.0654
     30 H          -4.6965    1.0622    1.2901 H       1  UNL11       0.0624
     31 H          -6.9802    0.1652    1.0082 H       1  UNL11       0.0618
     32 H          -7.3456   -1.8883   -0.1812 H       1  UNL11       0.0618
     33 H          -5.4381   -3.1298   -1.1385 H       1  UNL11       0.0618
     34 H          -3.1340   -2.2206   -0.8514 H       1  UNL11       0.0624
     35 H           2.0196   -1.7092   -3.2950 H       1  UNL11       0.0662
@<TRIPOS>BOND
     1     1     2   am
     2     1    23    1
     3     1    24    1
     4     2     3    2
     5     2     4    1
     6     4     5   ar
     7     5     6   ar
     8     5    25    1
     9     6     7   ar
    10     6    26    1
    11     7     8   ar
    12     7    27    1
    13     8     9    1
    14     8    22   ar
    15     9    10    1
    16    10    11   ar
    17    11    12   ar
    18    12    13   ar
    19    12    28    1
    20    13    14   ar
    21    13    29    1
    22    14    15    1
    23    14    21   ar
    24    15    16   ar
    25    16    17   ar
    26    16    30    1
    27    17    18   ar
    28    17    31    1
    29    18    19   ar
    30    18    32    1
    31    19    20   ar
    32    19    33    1
    33    20    15   ar
    34    20    34    1
    35    21    10   ar
    36    22     4   ar
    37    22    35    1
@<TRIPOS>MOLECULE
*****
 35 37 0 0 0
SMALL
GASTEIGER

@<TRIPOS>ATOM
      1 N           6.7669    0.6183   -2.1618 N.am    1  UNL11      -0.3253
      2 C           5.5206    0.1604   -2.6549 C.2     1  UNL11       0.2416
      3 O           5.3053    0.0347   -3.8942 O.2     1  UNL11      -0.2704
      4 C           4.4797   -0.1663   -1.6855 C.ar    1  UNL11       0.0400
      5 C           4.7832   -0.6217   -0.4212 C.ar    1  UNL11      -0.0494
      6 C           3.8007   -0.9243    0.4778 C.ar    1  UNL11      -0.0576
      7 C           2.4908   -0.7621    0.0869 C.ar    1  UNL11      -0.0192
      8 C           2.1350   -0.3105   -1.1642 C.ar    1  UNL11       0.1326
      9 O           0.7881   -0.1818   -1.4592 O.3     1  UNL11      -0.4236
     10 C          -0.1653    0.1050   -0.4907 C.ar    1  UNL11       0.3239
     11 N           0.2225    0.8363    0.5748 N.ar    1  UNL11      -0.2030
     12 C          -0.6176    1.1685    1.5650 C.ar    1  UNL11       0.0350
     13 C          -1.9409    0.7161    1.4455 C.ar    1  UNL11      -0.0173
     14 C          -2.3671   -0.0285    0.3760 C.ar    1  UNL11       0.0778
     15 C          -3.7319   -0.4982    0.2473 C.ar    1  UNL11       0.0006
     16 C          -4.0979   -1.6508   -0.3861 C.ar    1  UNL11      -0.0526
     17 C          -5.4405   -2.0504   -0.4762 C.ar    1  UNL11      -0.0611
     18 C          -6.4245   -1.2881    0.0731 C.ar    1  UNL11      -0.0617
     19 C          -6.0835   -0.1207    0.7179 C.ar    1  UNL11      -0.0611
     20 C          -4.7633    0.2684    0.8042 C.ar    1  UNL11      -0.0526
     21 N          -1.4370   -0.3172   -0.5841 N.ar    1  UNL11      -0.1946
     22 C           3.1457   -0.0129   -2.0503 C.ar    1  UNL11      -0.0071
     23 H           7.1559    1.5553   -2.4796 H       1  UNL11       0.1453
     24 H           7.3292    0.0721   -1.4919 H       1  UNL11       0.1453
     25 H           5.8441   -0.7360   -0.1522 H       1  UNL11       0.0625
     26 H           4.0169   -1.2808    1.4687 H       1  UNL11       0.0619
     27 H           1.7024   -0.9948    0.7799 H       1  UNL11       0.0654
     28 H          -0.3281    1.7549    2.4303 H       1  UNL11       0.0832
     29 H          -2.6449    0.9759    2.2434 H       1  UNL11       0.0654
     30 H          -3.3490   -2.2727   -0.8286 H       1  UNL11       0.0624
     31 H          -5.7118   -2.9740   -0.9861 H       1  UNL11       0.0618
     32 H          -7.4499   -1.6302   -0.0172 H       1  UNL11       0.0618
     33 H          -6.8939    0.4730    1.1504 H       1  UNL11       0.0618
     34 H          -4.5069    1.1774    1.3071 H       1  UNL11       0.0624
     35 H           2.8988    0.3426   -3.0370 H       1  UNL11       0.0662
@<TRIPOS>BOND
     1     1     2   am
     2     1    23    1
     3     1    24    1
     4     2     3    2
     5     2     4    1
     6     4     5   ar
     7     5     6   ar
     8     5    25    1
     9     6     7   ar
    10     6    26    1
    11     7     8   ar
    12     7    27    1
    13     8     9    1
    14     8    22   ar
    15     9    10    1
    16    10    11   ar
    17    11    12   ar
    18    12    13   ar
    19    12    28    1
    20    13    14   ar
    21    13    29    1
    22    14    15    1
    23    14    21   ar
    24    15    16   ar
    25    16    17   ar
    26    16    30    1
    27    17    18   ar
    28    17    31    1
    29    18    19   ar
    30    18    32    1
    31    19    20   ar
    32    19    33    1
    33    20    15   ar
    34    20    34    1
    35    21    10   ar
    36    22     4   ar
    37    22    35    1
@<TRIPOS>MOLECULE
*****
 35 37 0 0 0
SMALL
GASTEIGER

@<TRIPOS>ATOM
      1 N           5.2487    1.1759   -3.6041 N.am    1  UNL11      -0.3253
      2 C           5.5206    0.1604   -2.6549 C.2     1  UNL11       0.2416
      3 O           6.6271   -0.4507   -2.6385 O.2     1  UNL11      -0.2704
      4 C           4.4797   -0.1663   -1.6855 C.ar    1  UNL11       0.0400
      5 C           4.7832   -0.6217   -0.4212 C.ar    1  UNL11      -0.0494
      6 C           3.8007   -0.9243    0.4778 C.ar    1  UNL11      -0.0576
      7 C           2.4908   -0.7621    0.0869 C.ar    1  UNL11      -0.0192
      8 C           2.1350   -0.3105   -1.1642 C.ar    1  UNL11       0.1326
      9 O           0.7881   -0.1818   -1.4592 O.3     1  UNL11      -0.4236
     10 C          -0.1653    0.1050   -0.4907 C.ar    1  UNL11       0.3239
     11 N           0.2225    0.8363    0.5748 N.ar    1  UNL11      -0.2030
     12 C          -0.6176    1.1685    1.5650 C.ar    1  UNL11       0.0350
     13 C          -1.9409    0.7161    1.4455 C.ar    1  UNL11      -0.0173
     14 C          -2.3671   -0.0285    0.3760 C.ar    1  UNL11       0.0778
     15 C          -3.7319   -0.4982    0.2473 C.ar    1  UNL11       0.0006
     16 C          -4.1964   -1.2538   -0.7905 C.ar    1  UNL11      -0.0526
     17 C          -5.5330   -1.6776   -0.8560 C.ar    1  UNL11      -0.0611
     18 C          -6.4114   -1.3410    0.1270 C.ar    1  UNL11      -0.0617
     19 C          -5.9696   -0.5796    1.1853 C.ar    1  UNL11      -0.0611
     20 C          -4.6557   -0.1653    1.2459 C.ar    1  UNL11      -0.0526
     21 N          -1.4370   -0.3172   -0.5841 N.ar    1  UNL11      -0.1946
     22 C           3.1457   -0.0129   -2.0503 C.ar    1  UNL11      -0.0071
     23 H           5.3239    0.9693   -4.6443 H       1  UNL11       0.1453
     24 H           4.9741    2.1304   -3.3271 H       1  UNL11       0.1453
     25 H           5.8441   -0.7360   -0.1522 H       1  UNL11       0.0625
     26 H           4.0169   -1.2808    1.4687 H       1  UNL11       0.0619
     27 H           1.7024   -0.9948    0.7799 H       1  UNL11       0.0654
     28 H          -0.3281    1.7549    2.4303 H       1  UNL11       0.0832
     29 H          -2.6449    0.9759    2.2434 H       1  UNL11       0.0654
     30 H          -3.5319   -1.5355   -1.5794 H       1  UNL11       0.0624
     31 H          -5.8840   -2.2800   -1.6929 H       1  UNL11       0.0618
     32 H          -7.4357   -1.6873    0.0409 H       1  UNL11       0.0618
     33 H          -6.6963   -0.3234    1.9616 H       1  UNL11       0.0618
     34 H          -4.3206    0.4263    2.0721 H       1  UNL11       0.0624
     35 H           2.8988    0.3426   -3.0370 H       1  UNL11       0.0662
@<TRIPOS>BOND
     1     1     2   am
     2     1    23    1
     3     1    24    1
     4     2     3    2
     5     2     4    1
     6     4     5   ar
     7     5     6   ar
     8     5    25    1
     9     6     7   ar
    10     6    26    1
    11     7     8   ar
    12     7    27    1
    13     8     9    1
    14     8    22   ar
    15     9    10    1
    16    10    11   ar
    17    11    12   ar
    18    12    13   ar
    19    12    28    1
    20    13    14   ar
    21    13    29    1
    22    14    15    1
    23    14    21   ar
    24    15    16   ar
    25    16    17   ar
    26    16    30    1
    27    17    18   ar
    28    17    31    1
    29    18    19   ar
    30    18    32    1
    31    19    20   ar
    32    19    33    1
    33    20    15   ar
    34    20    34    1
    35    21    10   ar
    36    22     4   ar
    37    22    35    1
@<TRIPOS>MOLECULE
*****
 35 37 0 0 0
SMALL
GASTEIGER

@<TRIPOS>ATOM
      1 N           5.8492   -1.4485    1.7739 N.am    1  UNL11      -0.3253
      2 C           4.4514   -1.3532    1.5659 C.2     1  UNL11       0.2416
      3 O           3.6250   -1.6755    2.4666 O.2     1  UNL11      -0.2704
      4 C           3.9840   -0.8680    0.2713 C.ar    1  UNL11       0.0400
      5 C           4.8612   -0.5111   -0.7292 C.ar    1  UNL11      -0.0494
      6 C           4.4124   -0.0583   -1.9369 C.ar    1  UNL11      -0.0576
      7 C           3.0526    0.0333   -2.1312 C.ar    1  UNL11      -0.0192
      8 C           2.1350   -0.3105   -1.1642 C.ar    1  UNL11       0.1326
      9 O           0.7881   -0.1818   -1.4592 O.3     1  UNL11      -0.4236
     10 C          -0.1653    0.1050   -0.4907 C.ar    1  UNL11       0.3239
     11 N           0.2225    0.8363    0.5748 N.ar    1  UNL11      -0.2030
     12 C          -0.6176    1.1685    1.5650 C.ar    1  UNL11       0.0350
     13 C          -1.9409    0.7161    1.4455 C.ar    1  UNL11      -0.0173
     14 C          -2.3671   -0.0285    0.3760 C.ar    1  UNL11       0.0778
     15 C          -3.7319   -0.4982    0.2473 C.ar    1  UNL11       0.0006
     16 C          -4.0979   -1.6508   -0.3861 C.ar    1  UNL11      -0.0526
     17 C          -5.4405   -2.0504   -0.4762 C.ar    1  UNL11      -0.0611
     18 C          -6.4245   -1.2881    0.0731 C.ar    1  UNL11      -0.0617
     19 C          -6.0835   -0.1207    0.7179 C.ar    1  UNL11      -0.0611
     20 C          -4.7633    0.2684    0.8042 C.ar    1  UNL11      -0.0526
     21 N          -1.4370   -0.3172   -0.5841 N.ar    1  UNL11      -0.1946
     22 C           2.6152   -0.7639    0.0438 C.ar    1  UNL11      -0.0071
     23 H           6.2856   -2.3761    2.0560 H       1  UNL11       0.1453
     24 H           6.4797   -0.6404    1.6618 H       1  UNL11       0.1453
     25 H           5.9396   -0.6008   -0.5295 H       1  UNL11       0.0625
     26 H           5.0805    0.2249   -2.7301 H       1  UNL11       0.0619
     27 H           2.6789    0.3875   -3.0751 H       1  UNL11       0.0654
     28 H          -0.3281    1.7549    2.4303 H       1  UNL11       0.0832
     29 H          -2.6449    0.9759    2.2434 H       1  UNL11       0.0654
     30 H          -3.3490   -2.2727   -0.8286 H       1  UNL11       0.0624
     31 H          -5.7118   -2.9740   -0.9861 H       1  UNL11       0.0618
     32 H          -7.4499   -1.6302   -0.0172 H       1  UNL11       0.0618
     33 H          -6.8939    0.4730    1.1504 H       1  UNL11       0.0618
     34 H          -4.5069    1.1774    1.3071 H       1  UNL11       0.0624
     35 H           1.9217   -1.0407    0.8205 H       1  UNL11       0.0662
@<TRIPOS>BOND
     1     1     2   am
     2     1    23    1
     3     1    24    1
     4     2     3    2
     5     2     4    1
     6     4     5   ar
     7     5     6   ar
     8     5    25    1
     9     6     7   ar
    10     6    26    1
    11     7     8   ar
    12     7    27    1
    13     8     9    1
    14     8    22   ar
    15     9    10    1
    16    10    11   ar
    17    11    12   ar
    18    12    13   ar
    19    12    28    1
    20    13    14   ar
    21    13    29    1
    22    14    15    1
    23    14    21   ar
    24    15    16   ar
    25    16    17   ar
    26    16    30    1
    27    17    18   ar
    28    17    31    1
    29    18    19   ar
    30    18    32    1
    31    19    20   ar
    32    19    33    1
    33    20    15   ar
    34    20    34    1
    35    21    10   ar
    36    22     4   ar
    37    22    35    1
@<TRIPOS>MOLECULE
*****
 35 37 0 0 0
SMALL
GASTEIGER

@<TRIPOS>ATOM
      1 N          -2.7078   -3.6973   -2.7825 N.am    1  UNL11      -0.3253
      2 C          -1.6257   -3.8069   -3.6897 C.2     1  UNL11       0.2416
      3 O          -1.7315   -4.4539   -4.7706 O.2     1  UNL11      -0.2704
      4 C          -0.3715   -3.1469   -3.3414 C.ar    1  UNL11       0.0400
      5 C           0.8467   -3.6401   -3.7546 C.ar    1  UNL11      -0.0494
      6 C           2.0141   -3.0140   -3.4226 C.ar    1  UNL11      -0.0576
      7 C           1.9431   -1.8702   -2.6598 C.ar    1  UNL11      -0.0192
      8 C           0.7516   -1.3370   -2.2220 C.ar    1  UNL11       0.1326
      9 O           0.7881   -0.1818   -1.4592 O.3     1  UNL11      -0.4236
     10 C          -0.1653    0.1050   -0.4907 C.ar    1  UNL11       0.3239
     11 N           0.2225    0.8363    0.5748 N.ar    1  UNL11      -0.2030
     12 C          -0.6176    1.1685    1.5650 C.ar    1  UNL11       0.0350
     13 C          -1.9409    0.7161    1.4455 C.ar    1  UNL11      -0.0173
     14 C          -2.3671   -0.0285    0.3760 C.ar    1  UNL11       0.0778
     15 C          -3.7319   -0.4982    0.2473 C.ar    1  UNL11       0.0006
     16 C          -4.5540   -0.7869    1.2982 C.ar    1  UNL11      -0.0526
     17 C          -5.8689   -1.2391    1.1055 C.ar    1  UNL11      -0.0611
     18 C          -6.3638   -1.4032   -0.1512 C.ar    1  UNL11      -0.0617
     19 C          -5.5562   -1.1193   -1.2292 C.ar    1  UNL11      -0.0611
     20 C          -4.2650   -0.6754   -1.0356 C.ar    1  UNL11      -0.0526
     21 N          -1.4370   -0.3172   -0.5841 N.ar    1  UNL11      -0.1946
     22 C          -0.4097   -1.9886   -2.5714 C.ar    1  UNL11      -0.0071
     23 H          -3.1685   -4.5722   -2.3918 H       1  UNL11       0.1453
     24 H          -3.0795   -2.7860   -2.4750 H       1  UNL11       0.1453
     25 H           0.8555   -4.5570   -4.3628 H       1  UNL11       0.0625
     26 H           2.9743   -3.3828   -3.7351 H       1  UNL11       0.0619
     27 H           2.8508   -1.3623   -2.3877 H       1  UNL11       0.0654
     28 H          -0.3281    1.7549    2.4303 H       1  UNL11       0.0832
     29 H          -2.6449    0.9759    2.2434 H       1  UNL11       0.0654
     30 H          -4.1959   -0.6687    2.2988 H       1  UNL11       0.0624
     31 H          -6.5090   -1.4641    1.9577 H       1  UNL11       0.0618
     32 H          -7.3843   -1.7543   -0.2593 H       1  UNL11       0.0618
     33 H          -5.9789   -1.2598   -2.2281 H       1  UNL11       0.0618
     34 H          -3.6440   -0.4571   -1.8792 H       1  UNL11       0.0624
     35 H          -1.3579   -1.5956   -2.2436 H       1  UNL11       0.0662
@<TRIPOS>BOND
     1     1     2   am
     2     1    23    1
     3     1    24    1
     4     2     3    2
     5     2     4    1
     6     4     5   ar
     7     5     6   ar
     8     5    25    1
     9     6     7   ar
    10     6    26    1
    11     7     8   ar
    12     7    27    1
    13     8     9    1
    14     8    22   ar
    15     9    10    1
    16    10    11   ar
    17    11    12   ar
    18    12    13   ar
    19    12    28    1
    20    13    14   ar
    21    13    29    1
    22    14    15    1
    23    14    21   ar
    24    15    16   ar
    25    16    17   ar
    26    16    30    1
    27    17    18   ar
    28    17    31    1
    29    18    19   ar
    30    18    32    1
    31    19    20   ar
    32    19    33    1
    33    20    15   ar
    34    20    34    1
    35    21    10   ar
    36    22     4   ar
    37    22    35    1
@<TRIPOS>MOLECULE
*****
 35 37 0 0 0
SMALL
GASTEIGER

@<TRIPOS>ATOM
      1 N           2.8630   -0.8833   -6.1007 N.am    1  UNL11      -0.3253
      2 C           1.5127   -1.3059   -6.1661 C.2     1  UNL11       0.2416
      3 O           0.9334   -1.5009   -7.2726 O.2     1  UNL11      -0.2704
      4 C           0.7991   -1.5129   -4.9099 C.ar    1  UNL11       0.0400
      5 C          -0.2065   -2.4471   -4.7925 C.ar    1  UNL11      -0.0494
      6 C          -0.8675   -2.6321   -3.6119 C.ar    1  UNL11      -0.0576
      7 C          -0.5017   -1.8569   -2.5347 C.ar    1  UNL11      -0.0192
      8 C           0.4959   -0.9102   -2.6002 C.ar    1  UNL11       0.1326
      9 O           0.7881   -0.1818   -1.4592 O.3     1  UNL11      -0.4236
     10 C          -0.1653    0.1050   -0.4907 C.ar    1  UNL11       0.3239
     11 N           0.2225    0.8363    0.5748 N.ar    1  UNL11      -0.2030
     12 C          -0.6176    1.1685    1.5650 C.ar    1  UNL11       0.0350
     13 C          -1.9409    0.7161    1.4455 C.ar    1  UNL11      -0.0173
     14 C          -2.3671   -0.0285    0.3760 C.ar    1  UNL11       0.0778
     15 C          -3.7319   -0.4982    0.2473 C.ar    1  UNL11       0.0006
     16 C          -4.3733   -0.6985   -0.9410 C.ar    1  UNL11      -0.0526
     17 C          -5.6992   -1.1561   -0.9974 C.ar    1  UNL11      -0.0611
     18 C          -6.3878   -1.4150    0.1471 C.ar    1  UNL11      -0.0617
     19 C          -5.7651   -1.2216    1.3594 C.ar    1  UNL11      -0.0611
     20 C          -4.4625   -0.7719    1.4104 C.ar    1  UNL11      -0.0526
     21 N          -1.4370   -0.3172   -0.5841 N.ar    1  UNL11      -0.1946
     22 C           1.1456   -0.7448   -3.8026 C.ar    1  UNL11      -0.0071
     23 H           3.1683    0.0089   -6.5916 H       1  UNL11       0.1453
     24 H           3.5824   -1.4135   -5.5863 H       1  UNL11       0.1453
     25 H          -0.4654   -3.0444   -5.6797 H       1  UNL11       0.0625
     26 H          -1.6546   -3.3558   -3.4999 H       1  UNL11       0.0619
     27 H          -1.0098   -1.9871   -1.5962 H       1  UNL11       0.0654
     28 H          -0.3281    1.7549    2.4303 H       1  UNL11       0.0832
     29 H          -2.6449    0.9759    2.2434 H       1  UNL11       0.0654
     30 H          -3.8604   -0.5044   -1.8590 H       1  UNL11       0.0624
     31 H          -6.1932   -1.3095   -1.9560 H       1  UNL11       0.0618
     32 H          -7.4103   -1.7671    0.0625 H       1  UNL11       0.0618
     33 H          -6.3414   -1.4373    2.2636 H       1  UNL11       0.0618
     34 H          -3.9859   -0.6242    2.3570 H       1  UNL11       0.0624
     35 H           1.9307   -0.0116   -3.8851 H       1  UNL11       0.0662
@<TRIPOS>BOND
     1     1     2   am
     2     1    23    1
     3     1    24    1
     4     2     3    2
     5     2     4    1
     6     4     5   ar
     7     5     6   ar
     8     5    25    1
     9     6     7   ar
    10     6    26    1
    11     7     8   ar
    12     7    27    1
    13     8     9    1
    14     8    22   ar
    15     9    10    1
    16    10    11   ar
    17    11    12   ar
    18    12    13   ar
    19    12    28    1
    20    13    14   ar
    21    13    29    1
    22    14    15    1
    23    14    21   ar
    24    15    16   ar
    25    16    17   ar
    26    16    30    1
    27    17    18   ar
    28    17    31    1
    29    18    19   ar
    30    18    32    1
    31    19    20   ar
    32    19    33    1
    33    20    15   ar
    34    20    34    1
    35    21    10   ar
    36    22     4   ar
    37    22    35    1
@<TRIPOS>MOLECULE
*****
 35 37 0 0 0
SMALL
GASTEIGER

@<TRIPOS>ATOM
      1 N           3.6323    5.0768   -2.5219 N.am    1  UNL11      -0.3253
      2 C           2.8356    4.2566   -1.6859 C.2     1  UNL11       0.2416
      3 O           2.0676    4.7510   -0.8119 O.2     1  UNL11      -0.2704
      4 C           2.9245    2.8104   -1.8610 C.ar    1  UNL11       0.0400
      5 C           4.0794    2.2031   -2.3027 C.ar    1  UNL11      -0.0494
      6 C           4.1511    0.8488   -2.4628 C.ar    1  UNL11      -0.0576
      7 C           3.0333    0.1004   -2.1701 C.ar    1  UNL11      -0.0192
      8 C           1.8558    0.6588   -1.7260 C.ar    1  UNL11       0.1326
      9 O           0.7881   -0.1818   -1.4592 O.3     1  UNL11      -0.4236
     10 C          -0.1653    0.1050   -0.4907 C.ar    1  UNL11       0.3239
     11 N           0.2225    0.8363    0.5748 N.ar    1  UNL11      -0.2030
     12 C          -0.6176    1.1685    1.5650 C.ar    1  UNL11       0.0350
     13 C          -1.9409    0.7161    1.4455 C.ar    1  UNL11      -0.0173
     14 C          -2.3671   -0.0285    0.3760 C.ar    1  UNL11       0.0778
     15 C          -3.7319   -0.4982    0.2473 C.ar    1  UNL11       0.0006
     16 C          -4.8236    0.1453    0.7549 C.ar    1  UNL11      -0.0526
     17 C          -6.1221   -0.3636    0.5953 C.ar    1  UNL11      -0.0611
     18 C          -6.3279   -1.5274   -0.0788 C.ar    1  UNL11      -0.0617
     19 C          -5.2445   -2.1970   -0.6012 C.ar    1  UNL11      -0.0611
     20 C          -3.9706   -1.6937   -0.4422 C.ar    1  UNL11      -0.0526
     21 N          -1.4370   -0.3172   -0.5841 N.ar    1  UNL11      -0.1946
     22 C           1.8116    2.0263   -1.5735 C.ar    1  UNL11      -0.0071
     23 H           4.3145    5.7718   -2.0954 H       1  UNL11       0.1453
     24 H           3.5808    5.0305   -3.5506 H       1  UNL11       0.1453
     25 H           4.9484    2.8407   -2.5244 H       1  UNL11       0.0625
     26 H           5.0428    0.3559   -2.8061 H       1  UNL11       0.0619
     27 H           3.0692   -0.9675   -2.2896 H       1  UNL11       0.0654
     28 H          -0.3281    1.7549    2.4303 H       1  UNL11       0.0832
     29 H          -2.6449    0.9759    2.2434 H       1  UNL11       0.0654
     30 H          -4.6965    1.0622    1.2901 H       1  UNL11       0.0624
     31 H          -6.9802    0.1652    1.0082 H       1  UNL11       0.0618
     32 H          -7.3456   -1.8883   -0.1812 H       1  UNL11       0.0618
     33 H          -5.4381   -3.1298   -1.1385 H       1  UNL11       0.0618
     34 H          -3.1340   -2.2206   -0.8514 H       1  UNL11       0.0624
     35 H           0.9040    2.4926   -1.2277 H       1  UNL11       0.0662
@<TRIPOS>BOND
     1     1     2   am
     2     1    23    1
     3     1    24    1
     4     2     3    2
     5     2     4    1
     6     4     5   ar
     7     5     6   ar
     8     5    25    1
     9     6     7   ar
    10     6    26    1
    11     7     8   ar
    12     7    27    1
    13     8     9    1
    14     8    22   ar
    15     9    10    1
    16    10    11   ar
    17    11    12   ar
    18    12    13   ar
    19    12    28    1
    20    13    14   ar
    21    13    29    1
    22    14    15    1
    23    14    21   ar
    24    15    16   ar
    25    16    17   ar
    26    16    30    1
    27    17    18   ar
    28    17    31    1
    29    18    19   ar
    30    18    32    1
    31    19    20   ar
    32    19    33    1
    33    20    15   ar
    34    20    34    1
    35    21    10   ar
    36    22     4   ar
    37    22    35    1
@<TRIPOS>MOLECULE
*****
 35 37 0 0 0
SMALL
GASTEIGER

@<TRIPOS>ATOM
      1 N           4.0194    4.9590   -1.3521 N.am    1  UNL11      -0.3253
      2 C           2.8356    4.2566   -1.6859 C.2     1  UNL11       0.2416
      3 O           1.7306    4.8536   -1.8303 O.2     1  UNL11      -0.2704
      4 C           2.9245    2.8104   -1.8610 C.ar    1  UNL11       0.0400
      5 C           4.0794    2.2031   -2.3027 C.ar    1  UNL11      -0.0494
      6 C           4.1511    0.8488   -2.4628 C.ar    1  UNL11      -0.0576
      7 C           3.0333    0.1004   -2.1701 C.ar    1  UNL11      -0.0192
      8 C           1.8558    0.6588   -1.7260 C.ar    1  UNL11       0.1326
      9 O           0.7881   -0.1818   -1.4592 O.3     1  UNL11      -0.4236
     10 C          -0.1653    0.1050   -0.4907 C.ar    1  UNL11       0.3239
     11 N           0.2225    0.8363    0.5748 N.ar    1  UNL11      -0.2030
     12 C          -0.6176    1.1685    1.5650 C.ar    1  UNL11       0.0350
     13 C          -1.9409    0.7161    1.4455 C.ar    1  UNL11      -0.0173
     14 C          -2.3671   -0.0285    0.3760 C.ar    1  UNL11       0.0778
     15 C          -3.7319   -0.4982    0.2473 C.ar    1  UNL11       0.0006
     16 C          -4.5540   -0.7869    1.2982 C.ar    1  UNL11      -0.0526
     17 C          -5.8689   -1.2391    1.1055 C.ar    1  UNL11      -0.0611
     18 C          -6.3638   -1.4032   -0.1512 C.ar    1  UNL11      -0.0617
     19 C          -5.5562   -1.1193   -1.2292 C.ar    1  UNL11      -0.0611
     20 C          -4.2650   -0.6754   -1.0356 C.ar    1  UNL11      -0.0526
     21 N          -1.4370   -0.3172   -0.5841 N.ar    1  UNL11      -0.1946
     22 C           1.8116    2.0263   -1.5735 C.ar    1  UNL11      -0.0071
     23 H           4.0553    5.5598   -0.4757 H       1  UNL11       0.1453
     24 H           4.8698    4.9139   -1.9334 H       1  UNL11       0.1453
     25 H           4.9484    2.8407   -2.5244 H       1  UNL11       0.0625
     26 H           5.0428    0.3559   -2.8061 H       1  UNL11       0.0619
     27 H           3.0692   -0.9675   -2.2896 H       1  UNL11       0.0654
     28 H          -0.3281    1.7549    2.4303 H       1  UNL11       0.0832
     29 H          -2.6449    0.9759    2.2434 H       1  UNL11       0.0654
     30 H          -4.1959   -0.6687    2.2988 H       1  UNL11       0.0624
     31 H          -6.5090   -1.4641    1.9577 H       1  UNL11       0.0618
     32 H          -7.3843   -1.7543   -0.2593 H       1  UNL11       0.0618
     33 H          -5.9789   -1.2598   -2.2281 H       1  UNL11       0.0618
     34 H          -3.6440   -0.4571   -1.8792 H       1  UNL11       0.0624
     35 H           0.9040    2.4926   -1.2277 H       1  UNL11       0.0662
@<TRIPOS>BOND
     1     1     2   am
     2     1    23    1
     3     1    24    1
     4     2     3    2
     5     2     4    1
     6     4     5   ar
     7     5     6   ar
     8     5    25    1
     9     6     7   ar
    10     6    26    1
    11     7     8   ar
    12     7    27    1
    13     8     9    1
    14     8    22   ar
    15     9    10    1
    16    10    11   ar
    17    11    12   ar
    18    12    13   ar
    19    12    28    1
    20    13    14   ar
    21    13    29    1
    22    14    15    1
    23    14    21   ar
    24    15    16   ar
    25    16    17   ar
    26    16    30    1
    27    17    18   ar
    28    17    31    1
    29    18    19   ar
    30    18    32    1
    31    19    20   ar
    32    19    33    1
    33    20    15   ar
    34    20    34    1
    35    21    10   ar
    36    22     4   ar
    37    22    35    1
@<TRIPOS>MOLECULE
*****
 35 37 0 0 0
SMALL
GASTEIGER

@<TRIPOS>ATOM
      1 N           6.1369    0.7285    1.4103 N.am    1  UNL11      -0.3253
      2 C           4.7521    0.9255    1.1872 C.2     1  UNL11       0.2416
      3 O           4.0719    1.7130    1.9050 O.2     1  UNL11      -0.2704
      4 C           4.1234    0.1884    0.0957 C.ar    1  UNL11       0.0400
      5 C           4.8393   -0.6774   -0.7016 C.ar    1  UNL11      -0.0494
      6 C           4.2404   -1.3619   -1.7203 C.ar    1  UNL11      -0.0576
      7 C           2.8946   -1.1641   -1.9322 C.ar    1  UNL11      -0.0192
      8 C           2.1350   -0.3105   -1.1642 C.ar    1  UNL11       0.1326
      9 O           0.7881   -0.1818   -1.4592 O.3     1  UNL11      -0.4236
     10 C          -0.1653    0.1050   -0.4907 C.ar    1  UNL11       0.3239
     11 N           0.2225    0.8363    0.5748 N.ar    1  UNL11      -0.2030
     12 C          -0.6176    1.1685    1.5650 C.ar    1  UNL11       0.0350
     13 C          -1.9409    0.7161    1.4455 C.ar    1  UNL11      -0.0173
     14 C          -2.3671   -0.0285    0.3760 C.ar    1  UNL11       0.0778
     15 C          -3.7319   -0.4982    0.2473 C.ar    1  UNL11       0.0006
     16 C          -4.0979   -1.6508   -0.3861 C.ar    1  UNL11      -0.0526
     17 C          -5.4405   -2.0504   -0.4762 C.ar    1  UNL11      -0.0611
     18 C          -6.4245   -1.2881    0.0731 C.ar    1  UNL11      -0.0617
     19 C          -6.0835   -0.1207    0.7179 C.ar    1  UNL11      -0.0611
     20 C          -4.7633    0.2684    0.8042 C.ar    1  UNL11      -0.0526
     21 N          -1.4370   -0.3172   -0.5841 N.ar    1  UNL11      -0.1946
     22 C           2.7644    0.3666   -0.1440 C.ar    1  UNL11      -0.0071
     23 H           6.4845    0.4058    2.3618 H       1  UNL11       0.1453
     24 H           6.8420    0.8872    0.6748 H       1  UNL11       0.1453
     25 H           5.9127   -0.8045   -0.4956 H       1  UNL11       0.0625
     26 H           4.7814   -2.0419   -2.3533 H       1  UNL11       0.0619
     27 H           2.4043   -1.6936   -2.7292 H       1  UNL11       0.0654
     28 H          -0.3281    1.7549    2.4303 H       1  UNL11       0.0832
     29 H          -2.6449    0.9759    2.2434 H       1  UNL11       0.0654
     30 H          -3.3490   -2.2727   -0.8286 H       1  UNL11       0.0624
     31 H          -5.7118   -2.9740   -0.9861 H       1  UNL11       0.0618
     32 H          -7.4499   -1.6302   -0.0172 H       1  UNL11       0.0618
     33 H          -6.8939    0.4730    1.1504 H       1  UNL11       0.0618
     34 H          -4.5069    1.1774    1.3071 H       1  UNL11       0.0624
     35 H           2.1965    1.0418    0.4743 H       1  UNL11       0.0662
@<TRIPOS>BOND
     1     1     2   am
     2     1    23    1
     3     1    24    1
     4     2     3    2
     5     2     4    1
     6     4     5   ar
     7     5     6   ar
     8     5    25    1
     9     6     7   ar
    10     6    26    1
    11     7     8   ar
    12     7    27    1
    13     8     9    1
    14     8    22   ar
    15     9    10    1
    16    10    11   ar
    17    11    12   ar
    18    12    13   ar
    19    12    28    1
    20    13    14   ar
    21    13    29    1
    22    14    15    1
    23    14    21   ar
    24    15    16   ar
    25    16    17   ar
    26    16    30    1
    27    17    18   ar
    28    17    31    1
    29    18    19   ar
    30    18    32    1
    31    19    20   ar
    32    19    33    1
    33    20    15   ar
    34    20    34    1
    35    21    10   ar
    36    22     4   ar
    37    22    35    1
@<TRIPOS>MOLECULE
*****
 35 37 0 0 0
SMALL
GASTEIGER

@<TRIPOS>ATOM
      1 N           0.8805   -2.7652   -6.9544 N.am    1  UNL11      -0.3253
      2 C           1.5569   -2.1500   -5.8726 C.2     1  UNL11       0.2416
      3 O           2.7891   -2.3432   -5.6670 O.2     1  UNL11      -0.2704
      4 C           0.7868   -1.2777   -4.9916 C.ar    1  UNL11       0.0400
      5 C          -0.3047   -0.5699   -5.4451 C.ar    1  UNL11      -0.0494
      6 C          -1.0178    0.2434   -4.6115 C.ar    1  UNL11      -0.0576
      7 C          -0.6166    0.3392   -3.2981 C.ar    1  UNL11      -0.0192
      8 C           0.4664   -0.3468   -2.7960 C.ar    1  UNL11       0.1326
      9 O           0.7881   -0.1818   -1.4592 O.3     1  UNL11      -0.4236
     10 C          -0.1653    0.1050   -0.4907 C.ar    1  UNL11       0.3239
     11 N           0.2225    0.8363    0.5748 N.ar    1  UNL11      -0.2030
     12 C          -0.6176    1.1685    1.5650 C.ar    1  UNL11       0.0350
     13 C          -1.9409    0.7161    1.4455 C.ar    1  UNL11      -0.0173
     14 C          -2.3671   -0.0285    0.3760 C.ar    1  UNL11       0.0778
     15 C          -3.7319   -0.4982    0.2473 C.ar    1  UNL11       0.0006
     16 C          -4.0979   -1.6508   -0.3861 C.ar    1  UNL11      -0.0526
     17 C          -5.4405   -2.0504   -0.4762 C.ar    1  UNL11      -0.0611
     18 C          -6.4245   -1.2881    0.0731 C.ar    1  UNL11      -0.0617
     19 C          -6.0835   -0.1207    0.7179 C.ar    1  UNL11      -0.0611
     20 C          -4.7633    0.2684    0.8042 C.ar    1  UNL11      -0.0526
     21 N          -1.4370   -0.3172   -0.5841 N.ar    1  UNL11      -0.1946
     22 C           1.1672   -1.1595   -3.6584 C.ar    1  UNL11      -0.0071
     23 H           0.8879   -3.8234   -7.0571 H       1  UNL11       0.1453
     24 H           0.3682   -2.2216   -7.6652 H       1  UNL11       0.1453
     25 H          -0.5892   -0.6772   -6.5026 H       1  UNL11       0.0625
     26 H          -1.8722    0.8037   -4.9459 H       1  UNL11       0.0619
     27 H          -1.1647    0.9742   -2.6257 H       1  UNL11       0.0654
     28 H          -0.3281    1.7549    2.4303 H       1  UNL11       0.0832
     29 H          -2.6449    0.9759    2.2434 H       1  UNL11       0.0654
     30 H          -3.3490   -2.2727   -0.8286 H       1  UNL11       0.0624
     31 H          -5.7118   -2.9740   -0.9861 H       1  UNL11       0.0618
     32 H          -7.4499   -1.6302   -0.0172 H       1  UNL11       0.0618
     33 H          -6.8939    0.4730    1.1504 H       1  UNL11       0.0618
     34 H          -4.5069    1.1774    1.3071 H       1  UNL11       0.0624
     35 H           2.0196   -1.7092   -3.2950 H       1  UNL11       0.0662
@<TRIPOS>BOND
     1     1     2   am
     2     1    23    1
     3     1    24    1
     4     2     3    2
     5     2     4    1
     6     4     5   ar
     7     5     6   ar
     8     5    25    1
     9     6     7   ar
    10     6    26    1
    11     7     8   ar
    12     7    27    1
    13     8     9    1
    14     8    22   ar
    15     9    10    1
    16    10    11   ar
    17    11    12   ar
    18    12    13   ar
    19    12    28    1
    20    13    14   ar
    21    13    29    1
    22    14    15    1
    23    14    21   ar
    24    15    16   ar
    25    16    17   ar
    26    16    30    1
    27    17    18   ar
    28    17    31    1
    29    18    19   ar
    30    18    32    1
    31    19    20   ar
    32    19    33    1
    33    20    15   ar
    34    20    34    1
    35    21    10   ar
    36    22     4   ar
    37    22    35    1
@<TRIPOS>MOLECULE
*****
 35 37 0 0 0
SMALL
GASTEIGER

@<TRIPOS>ATOM
      1 N           1.6667   -1.4835   -6.3444 N.am    1  UNL11      -0.3253
      2 C           1.7066   -2.6697   -5.5714 C.2     1  UNL11       0.2416
      3 O           2.1868   -3.7442   -6.0328 O.2     1  UNL11      -0.2704
      4 C           1.1733   -2.6197   -4.2137 C.ar    1  UNL11       0.0400
      5 C           0.6035   -3.7230   -3.6173 C.ar    1  UNL11      -0.0494
      6 C           0.1077   -3.6645   -2.3462 C.ar    1  UNL11      -0.0576
      7 C           0.1920   -2.4678   -1.6710 C.ar    1  UNL11      -0.0192
      8 C           0.7516   -1.3370   -2.2220 C.ar    1  UNL11       0.1326
      9 O           0.7881   -0.1818   -1.4592 O.3     1  UNL11      -0.4236
     10 C          -0.1653    0.1050   -0.4907 C.ar    1  UNL11       0.3239
     11 N           0.2225    0.8363    0.5748 N.ar    1  UNL11      -0.2030
     12 C          -0.6176    1.1685    1.5650 C.ar    1  UNL11       0.0350
     13 C          -1.9409    0.7161    1.4455 C.ar    1  UNL11      -0.0173
     14 C          -2.3671   -0.0285    0.3760 C.ar    1  UNL11       0.0778
     15 C          -3.7319   -0.4982    0.2473 C.ar    1  UNL11       0.0006
     16 C          -4.3733   -0.6985   -0.9410 C.ar    1  UNL11      -0.0526
     17 C          -5.6992   -1.1561   -0.9974 C.ar    1  UNL11      -0.0611
     18 C          -6.3878   -1.4150    0.1471 C.ar    1  UNL11      -0.0617
     19 C          -5.7651   -1.2216    1.3594 C.ar    1  UNL11      -0.0611
     20 C          -4.4625   -0.7719    1.4104 C.ar    1  UNL11      -0.0526
     21 N          -1.4370   -0.3172   -0.5841 N.ar    1  UNL11      -0.1946
     22 C           1.2436   -1.4244   -3.5049 C.ar    1  UNL11      -0.0071
     23 H           1.1766   -1.4765   -7.2878 H       1  UNL11       0.1453
     24 H           2.1015   -0.6039   -6.0274 H       1  UNL11       0.1453
     25 H           0.5576   -4.6587   -4.1946 H       1  UNL11       0.0625
     26 H          -0.3405   -4.5141   -1.8633 H       1  UNL11       0.0619
     27 H          -0.1925   -2.4009   -0.6692 H       1  UNL11       0.0654
     28 H          -0.3281    1.7549    2.4303 H       1  UNL11       0.0832
     29 H          -2.6449    0.9759    2.2434 H       1  UNL11       0.0654
     30 H          -3.8604   -0.5044   -1.8590 H       1  UNL11       0.0624
     31 H          -6.1932   -1.3095   -1.9560 H       1  UNL11       0.0618
     32 H          -7.4103   -1.7671    0.0625 H       1  UNL11       0.0618
     33 H          -6.3414   -1.4373    2.2636 H       1  UNL11       0.0618
     34 H          -3.9859   -0.6242    2.3570 H       1  UNL11       0.0624
     35 H           1.6874   -0.5563   -3.9633 H       1  UNL11       0.0662
@<TRIPOS>BOND
     1     1     2   am
     2     1    23    1
     3     1    24    1
     4     2     3    2
     5     2     4    1
     6     4     5   ar
     7     5     6   ar
     8     5    25    1
     9     6     7   ar
    10     6    26    1
    11     7     8   ar
    12     7    27    1
    13     8     9    1
    14     8    22   ar
    15     9    10    1
    16    10    11   ar
    17    11    12   ar
    18    12    13   ar
    19    12    28    1
    20    13    14   ar
    21    13    29    1
    22    14    15    1
    23    14    21   ar
    24    15    16   ar
    25    16    17   ar
    26    16    30    1
    27    17    18   ar
    28    17    31    1
    29    18    19   ar
    30    18    32    1
    31    19    20   ar
    32    19    33    1
    33    20    15   ar
    34    20    34    1
    35    21    10   ar
    36    22     4   ar
    37    22    35    1
@<TRIPOS>MOLECULE
*****
 35 37 0 0 0
SMALL
GASTEIGER

@<TRIPOS>ATOM
      1 N          -0.9140   -5.7976   -3.0232 N.am    1  UNL11      -0.3253
      2 C          -0.3323   -4.9028   -2.0920 C.2     1  UNL11       0.2416
      3 O          -0.2941   -5.1664   -0.8563 O.2     1  UNL11      -0.2704
      4 C           0.2281   -3.6549   -2.6007 C.ar    1  UNL11       0.0400
      5 C           0.7524   -3.5601   -3.8712 C.ar    1  UNL11      -0.0494
      6 C           1.2742   -2.3871   -4.3366 C.ar    1  UNL11      -0.0576
      7 C           1.2634   -1.2943   -3.4994 C.ar    1  UNL11      -0.0192
      8 C           0.7516   -1.3370   -2.2220 C.ar    1  UNL11       0.1326
      9 O           0.7881   -0.1818   -1.4592 O.3     1  UNL11      -0.4236
     10 C          -0.1653    0.1050   -0.4907 C.ar    1  UNL11       0.3239
     11 N           0.2225    0.8363    0.5748 N.ar    1  UNL11      -0.2030
     12 C          -0.6176    1.1685    1.5650 C.ar    1  UNL11       0.0350
     13 C          -1.9409    0.7161    1.4455 C.ar    1  UNL11      -0.0173
     14 C          -2.3671   -0.0285    0.3760 C.ar    1  UNL11       0.0778
     15 C          -3.7319   -0.4982    0.2473 C.ar    1  UNL11       0.0006
     16 C          -4.8236    0.1453    0.7549 C.ar    1  UNL11      -0.0526
     17 C          -6.1221   -0.3636    0.5953 C.ar    1  UNL11      -0.0611
     18 C          -6.3279   -1.5274   -0.0788 C.ar    1  UNL11      -0.0617
     19 C          -5.2445   -2.1970   -0.6012 C.ar    1  UNL11      -0.0611
     20 C          -3.9706   -1.6937   -0.4422 C.ar    1  UNL11      -0.0526
     21 N          -1.4370   -0.3172   -0.5841 N.ar    1  UNL11      -0.1946
     22 C           0.2319   -2.5323   -1.7786 C.ar    1  UNL11      -0.0071
     23 H          -1.9223   -6.1127   -2.9036 H       1  UNL11       0.1453
     24 H          -0.3927   -6.1672   -3.8324 H       1  UNL11       0.1453
     25 H           0.7398   -4.4591   -4.5056 H       1  UNL11       0.0625
     26 H           1.6877   -2.2926   -5.3245 H       1  UNL11       0.0619
     27 H           1.6695   -0.3615   -3.8469 H       1  UNL11       0.0654
     28 H          -0.3281    1.7549    2.4303 H       1  UNL11       0.0832
     29 H          -2.6449    0.9759    2.2434 H       1  UNL11       0.0654
     30 H          -4.6965    1.0622    1.2901 H       1  UNL11       0.0624
     31 H          -6.9802    0.1652    1.0082 H       1  UNL11       0.0618
     32 H          -7.3456   -1.8883   -0.1812 H       1  UNL11       0.0618
     33 H          -5.4381   -3.1298   -1.1385 H       1  UNL11       0.0618
     34 H          -3.1340   -2.2206   -0.8514 H       1  UNL11       0.0624
     35 H          -0.1758   -2.5971   -0.7835 H       1  UNL11       0.0662
@<TRIPOS>BOND
     1     1     2   am
     2     1    23    1
     3     1    24    1
     4     2     3    2
     5     2     4    1
     6     4     5   ar
     7     5     6   ar
     8     5    25    1
     9     6     7   ar
    10     6    26    1
    11     7     8   ar
    12     7    27    1
    13     8     9    1
    14     8    22   ar
    15     9    10    1
    16    10    11   ar
    17    11    12   ar
    18    12    13   ar
    19    12    28    1
    20    13    14   ar
    21    13    29    1
    22    14    15    1
    23    14    21   ar
    24    15    16   ar
    25    16    17   ar
    26    16    30    1
    27    17    18   ar
    28    17    31    1
    29    18    19   ar
    30    18    32    1
    31    19    20   ar
    32    19    33    1
    33    20    15   ar
    34    20    34    1
    35    21    10   ar
    36    22     4   ar
    37    22    35    1
@<TRIPOS>MOLECULE
*****
 35 37 0 0 0
SMALL
GASTEIGER

@<TRIPOS>ATOM
      1 N           0.8805   -2.7652   -6.9544 N.am    1  UNL11      -0.3253
      2 C           1.5569   -2.1500   -5.8726 C.2     1  UNL11       0.2416
      3 O           2.7891   -2.3432   -5.6670 O.2     1  UNL11      -0.2704
      4 C           0.7868   -1.2777   -4.9916 C.ar    1  UNL11       0.0400
      5 C          -0.3047   -0.5699   -5.4451 C.ar    1  UNL11      -0.0494
      6 C          -1.0178    0.2434   -4.6115 C.ar    1  UNL11      -0.0576
      7 C          -0.6166    0.3392   -3.2981 C.ar    1  UNL11      -0.0192
      8 C           0.4664   -0.3468   -2.7960 C.ar    1  UNL11       0.1326
      9 O           0.7881   -0.1818   -1.4592 O.3     1  UNL11      -0.4236
     10 C          -0.1653    0.1050   -0.4907 C.ar    1  UNL11       0.3239
     11 N           0.2225    0.8363    0.5748 N.ar    1  UNL11      -0.2030
     12 C          -0.6176    1.1685    1.5650 C.ar    1  UNL11       0.0350
     13 C          -1.9409    0.7161    1.4455 C.ar    1  UNL11      -0.0173
     14 C          -2.3671   -0.0285    0.3760 C.ar    1  UNL11       0.0778
     15 C          -3.7319   -0.4982    0.2473 C.ar    1  UNL11       0.0006
     16 C          -4.8236    0.1453    0.7549 C.ar    1  UNL11      -0.0526
     17 C          -6.1221   -0.3636    0.5953 C.ar    1  UNL11      -0.0611
     18 C          -6.3279   -1.5274   -0.0788 C.ar    1  UNL11      -0.0617
     19 C          -5.2445   -2.1970   -0.6012 C.ar    1  UNL11      -0.0611
     20 C          -3.9706   -1.6937   -0.4422 C.ar    1  UNL11      -0.0526
     21 N          -1.4370   -0.3172   -0.5841 N.ar    1  UNL11      -0.1946
     22 C           1.1672   -1.1595   -3.6584 C.ar    1  UNL11      -0.0071
     23 H           0.8879   -3.8234   -7.0571 H       1  UNL11       0.1453
     24 H           0.3682   -2.2216   -7.6652 H       1  UNL11       0.1453
     25 H          -0.5892   -0.6772   -6.5026 H       1  UNL11       0.0625
     26 H          -1.8722    0.8037   -4.9459 H       1  UNL11       0.0619
     27 H          -1.1647    0.9742   -2.6257 H       1  UNL11       0.0654
     28 H          -0.3281    1.7549    2.4303 H       1  UNL11       0.0832
     29 H          -2.6449    0.9759    2.2434 H       1  UNL11       0.0654
     30 H          -4.6965    1.0622    1.2901 H       1  UNL11       0.0624
     31 H          -6.9802    0.1652    1.0082 H       1  UNL11       0.0618
     32 H          -7.3456   -1.8883   -0.1812 H       1  UNL11       0.0618
     33 H          -5.4381   -3.1298   -1.1385 H       1  UNL11       0.0618
     34 H          -3.1340   -2.2206   -0.8514 H       1  UNL11       0.0624
     35 H           2.0196   -1.7092   -3.2950 H       1  UNL11       0.0662
@<TRIPOS>BOND
     1     1     2   am
     2     1    23    1
     3     1    24    1
     4     2     3    2
     5     2     4    1
     6     4     5   ar
     7     5     6   ar
     8     5    25    1
     9     6     7   ar
    10     6    26    1
    11     7     8   ar
    12     7    27    1
    13     8     9    1
    14     8    22   ar
    15     9    10    1
    16    10    11   ar
    17    11    12   ar
    18    12    13   ar
    19    12    28    1
    20    13    14   ar
    21    13    29    1
    22    14    15    1
    23    14    21   ar
    24    15    16   ar
    25    16    17   ar
    26    16    30    1
    27    17    18   ar
    28    17    31    1
    29    18    19   ar
    30    18    32    1
    31    19    20   ar
    32    19    33    1
    33    20    15   ar
    34    20    34    1
    35    21    10   ar
    36    22     4   ar
    37    22    35    1
@<TRIPOS>MOLECULE
*****
 35 37 0 0 0
SMALL
GASTEIGER

@<TRIPOS>ATOM
      1 N          -0.2468   -5.1501   -0.7000 N.am    1  UNL11      -0.3253
      2 C          -0.3323   -4.9028   -2.0920 C.2     1  UNL11       0.2416
      3 O          -0.8750   -5.7301   -2.8788 O.2     1  UNL11      -0.2704
      4 C           0.2281   -3.6549   -2.6007 C.ar    1  UNL11       0.0400
      5 C           0.7524   -3.5601   -3.8712 C.ar    1  UNL11      -0.0494
      6 C           1.2742   -2.3871   -4.3366 C.ar    1  UNL11      -0.0576
      7 C           1.2634   -1.2943   -3.4994 C.ar    1  UNL11      -0.0192
      8 C           0.7516   -1.3370   -2.2220 C.ar    1  UNL11       0.1326
      9 O           0.7881   -0.1818   -1.4592 O.3     1  UNL11      -0.4236
     10 C          -0.1653    0.1050   -0.4907 C.ar    1  UNL11       0.3239
     11 N           0.2225    0.8363    0.5748 N.ar    1  UNL11      -0.2030
     12 C          -0.6176    1.1685    1.5650 C.ar    1  UNL11       0.0350
     13 C          -1.9409    0.7161    1.4455 C.ar    1  UNL11      -0.0173
     14 C          -2.3671   -0.0285    0.3760 C.ar    1  UNL11       0.0778
     15 C          -3.7319   -0.4982    0.2473 C.ar    1  UNL11       0.0006
     16 C          -4.5540   -0.7869    1.2982 C.ar    1  UNL11      -0.0526
     17 C          -5.8689   -1.2391    1.1055 C.ar    1  UNL11      -0.0611
     18 C          -6.3638   -1.4032   -0.1512 C.ar    1  UNL11      -0.0617
     19 C          -5.5562   -1.1193   -1.2292 C.ar    1  UNL11      -0.0611
     20 C          -4.2650   -0.6754   -1.0356 C.ar    1  UNL11      -0.0526
     21 N          -1.4370   -0.3172   -0.5841 N.ar    1  UNL11      -0.1946
     22 C           0.2319   -2.5323   -1.7786 C.ar    1  UNL11      -0.0071
     23 H           0.2253   -6.0329   -0.3420 H       1  UNL11       0.1453
     24 H          -0.6304   -4.4979    0.0005 H       1  UNL11       0.1453
     25 H           0.7398   -4.4591   -4.5056 H       1  UNL11       0.0625
     26 H           1.6877   -2.2926   -5.3245 H       1  UNL11       0.0619
     27 H           1.6695   -0.3615   -3.8469 H       1  UNL11       0.0654
     28 H          -0.3281    1.7549    2.4303 H       1  UNL11       0.0832
     29 H          -2.6449    0.9759    2.2434 H       1  UNL11       0.0654
     30 H          -4.1959   -0.6687    2.2988 H       1  UNL11       0.0624
     31 H          -6.5090   -1.4641    1.9577 H       1  UNL11       0.0618
     32 H          -7.3843   -1.7543   -0.2593 H       1  UNL11       0.0618
     33 H          -5.9789   -1.2598   -2.2281 H       1  UNL11       0.0618
     34 H          -3.6440   -0.4571   -1.8792 H       1  UNL11       0.0624
     35 H          -0.1758   -2.5971   -0.7835 H       1  UNL11       0.0662
@<TRIPOS>BOND
     1     1     2   am
     2     1    23    1
     3     1    24    1
     4     2     3    2
     5     2     4    1
     6     4     5   ar
     7     5     6   ar
     8     5    25    1
     9     6     7   ar
    10     6    26    1
    11     7     8   ar
    12     7    27    1
    13     8     9    1
    14     8    22   ar
    15     9    10    1
    16    10    11   ar
    17    11    12   ar
    18    12    13   ar
    19    12    28    1
    20    13    14   ar
    21    13    29    1
    22    14    15    1
    23    14    21   ar
    24    15    16   ar
    25    16    17   ar
    26    16    30    1
    27    17    18   ar
    28    17    31    1
    29    18    19   ar
    30    18    32    1
    31    19    20   ar
    32    19    33    1
    33    20    15   ar
    34    20    34    1
    35    21    10   ar
    36    22     4   ar
    37    22    35    1
@<TRIPOS>MOLECULE
*****
 35 37 0 0 0
SMALL
GASTEIGER

@<TRIPOS>ATOM
      1 N           5.3797   -0.5461   -3.7231 N.am    1  UNL11      -0.3253
      2 C           5.3875    0.6224   -2.9227 C.2     1  UNL11       0.2416
      3 O           6.4638    1.2193   -2.6340 O.2     1  UNL11      -0.2704
      4 C           4.1075    1.1257   -2.4344 C.ar    1  UNL11       0.0400
      5 C           3.8932    2.4683   -2.2123 C.ar    1  UNL11      -0.0494
      6 C           2.6912    2.9278   -1.7551 C.ar    1  UNL11      -0.0576
      7 C           1.6923    2.0102   -1.5201 C.ar    1  UNL11      -0.0192
      8 C           1.8558    0.6588   -1.7260 C.ar    1  UNL11       0.1326
      9 O           0.7881   -0.1818   -1.4592 O.3     1  UNL11      -0.4236
     10 C          -0.1653    0.1050   -0.4907 C.ar    1  UNL11       0.3239
     11 N           0.2225    0.8363    0.5748 N.ar    1  UNL11      -0.2030
     12 C          -0.6176    1.1685    1.5650 C.ar    1  UNL11       0.0350
     13 C          -1.9409    0.7161    1.4455 C.ar    1  UNL11      -0.0173
     14 C          -2.3671   -0.0285    0.3760 C.ar    1  UNL11       0.0778
     15 C          -3.7319   -0.4982    0.2473 C.ar    1  UNL11       0.0006
     16 C          -4.0979   -1.6508   -0.3861 C.ar    1  UNL11      -0.0526
     17 C          -5.4405   -2.0504   -0.4762 C.ar    1  UNL11      -0.0611
     18 C          -6.4245   -1.2881    0.0731 C.ar    1  UNL11      -0.0617
     19 C          -6.0835   -0.1207    0.7179 C.ar    1  UNL11      -0.0611
     20 C          -4.7633    0.2684    0.8042 C.ar    1  UNL11      -0.0526
     21 N          -1.4370   -0.3172   -0.5841 N.ar    1  UNL11      -0.1946
     22 C           3.0777    0.2232   -2.1873 C.ar    1  UNL11      -0.0071
     23 H           5.9520   -1.3947   -3.4356 H       1  UNL11       0.1453
     24 H           4.8312   -0.6146   -4.5935 H       1  UNL11       0.1453
     25 H           4.7202    3.1656   -2.4139 H       1  UNL11       0.0625
     26 H           2.5042    3.9712   -1.5757 H       1  UNL11       0.0619
     27 H           0.7385    2.3517   -1.1600 H       1  UNL11       0.0654
     28 H          -0.3281    1.7549    2.4303 H       1  UNL11       0.0832
     29 H          -2.6449    0.9759    2.2434 H       1  UNL11       0.0654
     30 H          -3.3490   -2.2727   -0.8286 H       1  UNL11       0.0624
     31 H          -5.7118   -2.9740   -0.9861 H       1  UNL11       0.0618
     32 H          -7.4499   -1.6302   -0.0172 H       1  UNL11       0.0618
     33 H          -6.8939    0.4730    1.1504 H       1  UNL11       0.0618
     34 H          -4.5069    1.1774    1.3071 H       1  UNL11       0.0624
     35 H           3.2362   -0.8287   -2.3580 H       1  UNL11       0.0662
@<TRIPOS>BOND
     1     1     2   am
     2     1    23    1
     3     1    24    1
     4     2     3    2
     5     2     4    1
     6     4     5   ar
     7     5     6   ar
     8     5    25    1
     9     6     7   ar
    10     6    26    1
    11     7     8   ar
    12     7    27    1
    13     8     9    1
    14     8    22   ar
    15     9    10    1
    16    10    11   ar
    17    11    12   ar
    18    12    13   ar
    19    12    28    1
    20    13    14   ar
    21    13    29    1
    22    14    15    1
    23    14    21   ar
    24    15    16   ar
    25    16    17   ar
    26    16    30    1
    27    17    18   ar
    28    17    31    1
    29    18    19   ar
    30    18    32    1
    31    19    20   ar
    32    19    33    1
    33    20    15   ar
    34    20    34    1
    35    21    10   ar
    36    22     4   ar
    37    22    35    1
@<TRIPOS>MOLECULE
*****
 35 37 0 0 0
SMALL
GASTEIGER

@<TRIPOS>ATOM
      1 N           5.2243    2.6072   -4.6552 N.am    1  UNL11      -0.3253
      2 C           4.1347    1.7192   -4.4807 C.2     1  UNL11       0.2416
      3 O           3.6942    1.0171   -5.4352 O.2     1  UNL11      -0.2704
      4 C           3.5268    1.6341   -3.1567 C.ar    1  UNL11       0.0400
      5 C           3.9847    2.3882   -2.0986 C.ar    1  UNL11      -0.0494
      6 C           3.4080    2.3004   -0.8638 C.ar    1  UNL11      -0.0576
      7 C           2.3506    1.4339   -0.7014 C.ar    1  UNL11      -0.0192
      8 C           1.8558    0.6588   -1.7260 C.ar    1  UNL11       0.1326
      9 O           0.7881   -0.1818   -1.4592 O.3     1  UNL11      -0.4236
     10 C          -0.1653    0.1050   -0.4907 C.ar    1  UNL11       0.3239
     11 N           0.2225    0.8363    0.5748 N.ar    1  UNL11      -0.2030
     12 C          -0.6176    1.1685    1.5650 C.ar    1  UNL11       0.0350
     13 C          -1.9409    0.7161    1.4455 C.ar    1  UNL11      -0.0173
     14 C          -2.3671   -0.0285    0.3760 C.ar    1  UNL11       0.0778
     15 C          -3.7319   -0.4982    0.2473 C.ar    1  UNL11       0.0006
     16 C          -4.0979   -1.6508   -0.3861 C.ar    1  UNL11      -0.0526
     17 C          -5.4405   -2.0504   -0.4762 C.ar    1  UNL11      -0.0611
     18 C          -6.4245   -1.2881    0.0731 C.ar    1  UNL11      -0.0617
     19 C          -6.0835   -0.1207    0.7179 C.ar    1  UNL11      -0.0611
     20 C          -4.7633    0.2684    0.8042 C.ar    1  UNL11      -0.0526
     21 N          -1.4370   -0.3172   -0.5841 N.ar    1  UNL11      -0.1946
     22 C           2.4561    0.7674   -2.9602 C.ar    1  UNL11      -0.0071
     23 H           5.1802    3.3683   -5.3962 H       1  UNL11       0.1453
     24 H           6.0800    2.5493   -4.0828 H       1  UNL11       0.1453
     25 H           4.8322    3.0676   -2.2746 H       1  UNL11       0.0625
     26 H           3.7504    2.8802   -0.0258 H       1  UNL11       0.0619
     27 H           1.8827    1.3500    0.2629 H       1  UNL11       0.0654
     28 H          -0.3281    1.7549    2.4303 H       1  UNL11       0.0832
     29 H          -2.6449    0.9759    2.2434 H       1  UNL11       0.0654
     30 H          -3.3490   -2.2727   -0.8286 H       1  UNL11       0.0624
     31 H          -5.7118   -2.9740   -0.9861 H       1  UNL11       0.0618
     32 H          -7.4499   -1.6302   -0.0172 H       1  UNL11       0.0618
     33 H          -6.8939    0.4730    1.1504 H       1  UNL11       0.0618
     34 H          -4.5069    1.1774    1.3071 H       1  UNL11       0.0624
     35 H           2.0913    0.1736   -3.7819 H       1  UNL11       0.0662
@<TRIPOS>BOND
     1     1     2   am
     2     1    23    1
     3     1    24    1
     4     2     3    2
     5     2     4    1
     6     4     5   ar
     7     5     6   ar
     8     5    25    1
     9     6     7   ar
    10     6    26    1
    11     7     8   ar
    12     7    27    1
    13     8     9    1
    14     8    22   ar
    15     9    10    1
    16    10    11   ar
    17    11    12   ar
    18    12    13   ar
    19    12    28    1
    20    13    14   ar
    21    13    29    1
    22    14    15    1
    23    14    21   ar
    24    15    16   ar
    25    16    17   ar
    26    16    30    1
    27    17    18   ar
    28    17    31    1
    29    18    19   ar
    30    18    32    1
    31    19    20   ar
    32    19    33    1
    33    20    15   ar
    34    20    34    1
    35    21    10   ar
    36    22     4   ar
    37    22    35    1
@<TRIPOS>MOLECULE
*****
 35 37 0 0 0
SMALL
GASTEIGER

@<TRIPOS>ATOM
      1 N           4.7018    4.3605   -0.4989 N.am    1  UNL11      -0.3253
      2 C           4.1154    3.1363   -0.0943 C.2     1  UNL11       0.2416
      3 O           4.1041    2.7768    1.1176 O.2     1  UNL11      -0.2704
      4 C           3.5178    2.2911   -1.1232 C.ar    1  UNL11       0.0400
      5 C           3.9860    2.2849   -2.4188 C.ar    1  UNL11      -0.0494
      6 C           3.4189    1.4897   -3.3733 C.ar    1  UNL11      -0.0576
      7 C           2.3608    0.6892   -3.0065 C.ar    1  UNL11      -0.0192
      8 C           1.8558    0.6588   -1.7260 C.ar    1  UNL11       0.1326
      9 O           0.7881   -0.1818   -1.4592 O.3     1  UNL11      -0.4236
     10 C          -0.1653    0.1050   -0.4907 C.ar    1  UNL11       0.3239
     11 N           0.2225    0.8363    0.5748 N.ar    1  UNL11      -0.2030
     12 C          -0.6176    1.1685    1.5650 C.ar    1  UNL11       0.0350
     13 C          -1.9409    0.7161    1.4455 C.ar    1  UNL11      -0.0173
     14 C          -2.3671   -0.0285    0.3760 C.ar    1  UNL11       0.0778
     15 C          -3.7319   -0.4982    0.2473 C.ar    1  UNL11       0.0006
     16 C          -4.8236    0.1453    0.7549 C.ar    1  UNL11      -0.0526
     17 C          -6.1221   -0.3636    0.5953 C.ar    1  UNL11      -0.0611
     18 C          -6.3279   -1.5274   -0.0788 C.ar    1  UNL11      -0.0617
     19 C          -5.2445   -2.1970   -0.6012 C.ar    1  UNL11      -0.0611
     20 C          -3.9706   -1.6937   -0.4422 C.ar    1  UNL11      -0.0526
     21 N          -1.4370   -0.3172   -0.5841 N.ar    1  UNL11      -0.1946
     22 C           2.4466    1.4704   -0.7839 C.ar    1  UNL11      -0.0071
     23 H           5.7190    4.5675   -0.2692 H       1  UNL11       0.1453
     24 H           4.1756    5.0786   -1.0190 H       1  UNL11       0.1453
     25 H           4.8340    2.9409   -2.6667 H       1  UNL11       0.0625
     26 H           3.7697    1.4704   -4.3894 H       1  UNL11       0.0619
     27 H           1.9004    0.0558   -3.7432 H       1  UNL11       0.0654
     28 H          -0.3281    1.7549    2.4303 H       1  UNL11       0.0832
     29 H          -2.6449    0.9759    2.2434 H       1  UNL11       0.0654
     30 H          -4.6965    1.0622    1.2901 H       1  UNL11       0.0624
     31 H          -6.9802    0.1652    1.0082 H       1  UNL11       0.0618
     32 H          -7.3456   -1.8883   -0.1812 H       1  UNL11       0.0618
     33 H          -5.4381   -3.1298   -1.1385 H       1  UNL11       0.0618
     34 H          -3.1340   -2.2206   -0.8514 H       1  UNL11       0.0624
     35 H           2.0736    1.4687    0.2269 H       1  UNL11       0.0662
@<TRIPOS>BOND
     1     1     2   am
     2     1    23    1
     3     1    24    1
     4     2     3    2
     5     2     4    1
     6     4     5   ar
     7     5     6   ar
     8     5    25    1
     9     6     7   ar
    10     6    26    1
    11     7     8   ar
    12     7    27    1
    13     8     9    1
    14     8    22   ar
    15     9    10    1
    16    10    11   ar
    17    11    12   ar
    18    12    13   ar
    19    12    28    1
    20    13    14   ar
    21    13    29    1
    22    14    15    1
    23    14    21   ar
    24    15    16   ar
    25    16    17   ar
    26    16    30    1
    27    17    18   ar
    28    17    31    1
    29    18    19   ar
    30    18    32    1
    31    19    20   ar
    32    19    33    1
    33    20    15   ar
    34    20    34    1
    35    21    10   ar
    36    22     4   ar
    37    22    35    1
@<TRIPOS>MOLECULE
*****
 35 37 0 0 0
SMALL
GASTEIGER

@<TRIPOS>ATOM
      1 N           5.2243    2.6072   -4.6552 N.am    1  UNL11      -0.3253
      2 C           4.1347    1.7192   -4.4807 C.2     1  UNL11       0.2416
      3 O           3.6942    1.0171   -5.4352 O.2     1  UNL11      -0.2704
      4 C           3.5268    1.6341   -3.1567 C.ar    1  UNL11       0.0400
      5 C           3.9847    2.3882   -2.0986 C.ar    1  UNL11      -0.0494
      6 C           3.4080    2.3004   -0.8638 C.ar    1  UNL11      -0.0576
      7 C           2.3506    1.4339   -0.7014 C.ar    1  UNL11      -0.0192
      8 C           1.8558    0.6588   -1.7260 C.ar    1  UNL11       0.1326
      9 O           0.7881   -0.1818   -1.4592 O.3     1  UNL11      -0.4236
     10 C          -0.1653    0.1050   -0.4907 C.ar    1  UNL11       0.3239
     11 N           0.2225    0.8363    0.5748 N.ar    1  UNL11      -0.2030
     12 C          -0.6176    1.1685    1.5650 C.ar    1  UNL11       0.0350
     13 C          -1.9409    0.7161    1.4455 C.ar    1  UNL11      -0.0173
     14 C          -2.3671   -0.0285    0.3760 C.ar    1  UNL11       0.0778
     15 C          -3.7319   -0.4982    0.2473 C.ar    1  UNL11       0.0006
     16 C          -4.3733   -0.6985   -0.9410 C.ar    1  UNL11      -0.0526
     17 C          -5.6992   -1.1561   -0.9974 C.ar    1  UNL11      -0.0611
     18 C          -6.3878   -1.4150    0.1471 C.ar    1  UNL11      -0.0617
     19 C          -5.7651   -1.2216    1.3594 C.ar    1  UNL11      -0.0611
     20 C          -4.4625   -0.7719    1.4104 C.ar    1  UNL11      -0.0526
     21 N          -1.4370   -0.3172   -0.5841 N.ar    1  UNL11      -0.1946
     22 C           2.4561    0.7674   -2.9602 C.ar    1  UNL11      -0.0071
     23 H           5.1802    3.3683   -5.3962 H       1  UNL11       0.1453
     24 H           6.0800    2.5493   -4.0828 H       1  UNL11       0.1453
     25 H           4.8322    3.0676   -2.2746 H       1  UNL11       0.0625
     26 H           3.7504    2.8802   -0.0258 H       1  UNL11       0.0619
     27 H           1.8827    1.3500    0.2629 H       1  UNL11       0.0654
     28 H          -0.3281    1.7549    2.4303 H       1  UNL11       0.0832
     29 H          -2.6449    0.9759    2.2434 H       1  UNL11       0.0654
     30 H          -3.8604   -0.5044   -1.8590 H       1  UNL11       0.0624
     31 H          -6.1932   -1.3095   -1.9560 H       1  UNL11       0.0618
     32 H          -7.4103   -1.7671    0.0625 H       1  UNL11       0.0618
     33 H          -6.3414   -1.4373    2.2636 H       1  UNL11       0.0618
     34 H          -3.9859   -0.6242    2.3570 H       1  UNL11       0.0624
     35 H           2.0913    0.1736   -3.7819 H       1  UNL11       0.0662
@<TRIPOS>BOND
     1     1     2   am
     2     1    23    1
     3     1    24    1
     4     2     3    2
     5     2     4    1
     6     4     5   ar
     7     5     6   ar
     8     5    25    1
     9     6     7   ar
    10     6    26    1
    11     7     8   ar
    12     7    27    1
    13     8     9    1
    14     8    22   ar
    15     9    10    1
    16    10    11   ar
    17    11    12   ar
    18    12    13   ar
    19    12    28    1
    20    13    14   ar
    21    13    29    1
    22    14    15    1
    23    14    21   ar
    24    15    16   ar
    25    16    17   ar
    26    16    30    1
    27    17    18   ar
    28    17    31    1
    29    18    19   ar
    30    18    32    1
    31    19    20   ar
    32    19    33    1
    33    20    15   ar
    34    20    34    1
    35    21    10   ar
    36    22     4   ar
    37    22    35    1
@<TRIPOS>MOLECULE
*****
 35 37 0 0 0
SMALL
GASTEIGER

@<TRIPOS>ATOM
      1 N          -2.7989   -1.0723   -6.2780 N.am    1  UNL11      -0.3253
      2 C          -2.2902   -1.4998   -5.0271 C.2     1  UNL11       0.2416
      3 O          -2.9282   -2.3094   -4.2953 O.2     1  UNL11      -0.2704
      4 C          -0.9967   -0.9763   -4.5997 C.ar    1  UNL11       0.0400
      5 C          -0.0239   -0.6175   -5.5068 C.ar    1  UNL11      -0.0494
      6 C           1.1830   -0.1287   -5.0952 C.ar    1  UNL11      -0.0576
      7 C           1.4051   -0.0025   -3.7424 C.ar    1  UNL11      -0.0192
      8 C           0.4664   -0.3468   -2.7960 C.ar    1  UNL11       0.1326
      9 O           0.7881   -0.1818   -1.4592 O.3     1  UNL11      -0.4236
     10 C          -0.1653    0.1050   -0.4907 C.ar    1  UNL11       0.3239
     11 N           0.2225    0.8363    0.5748 N.ar    1  UNL11      -0.2030
     12 C          -0.6176    1.1685    1.5650 C.ar    1  UNL11       0.0350
     13 C          -1.9409    0.7161    1.4455 C.ar    1  UNL11      -0.0173
     14 C          -2.3671   -0.0285    0.3760 C.ar    1  UNL11       0.0778
     15 C          -3.7319   -0.4982    0.2473 C.ar    1  UNL11       0.0006
     16 C          -4.3733   -0.6985   -0.9410 C.ar    1  UNL11      -0.0526
     17 C          -5.6992   -1.1561   -0.9974 C.ar    1  UNL11      -0.0611
     18 C          -6.3878   -1.4150    0.1471 C.ar    1  UNL11      -0.0617
     19 C          -5.7651   -1.2216    1.3594 C.ar    1  UNL11      -0.0611
     20 C          -4.4625   -0.7719    1.4104 C.ar    1  UNL11      -0.0526
     21 N          -1.4370   -0.3172   -0.5841 N.ar    1  UNL11      -0.1946
     22 C          -0.7415   -0.8368   -3.2389 C.ar    1  UNL11      -0.0071
     23 H          -3.7545   -0.6100   -6.3367 H       1  UNL11       0.1453
     24 H          -2.2729   -1.1911   -7.1569 H       1  UNL11       0.1453
     25 H          -0.2453   -0.7353   -6.5782 H       1  UNL11       0.0625
     26 H           1.9548    0.1569   -5.7870 H       1  UNL11       0.0619
     27 H           2.3488    0.3804   -3.3979 H       1  UNL11       0.0654
     28 H          -0.3281    1.7549    2.4303 H       1  UNL11       0.0832
     29 H          -2.6449    0.9759    2.2434 H       1  UNL11       0.0654
     30 H          -3.8604   -0.5044   -1.8590 H       1  UNL11       0.0624
     31 H          -6.1932   -1.3095   -1.9560 H       1  UNL11       0.0618
     32 H          -7.4103   -1.7671    0.0625 H       1  UNL11       0.0618
     33 H          -6.3414   -1.4373    2.2636 H       1  UNL11       0.0618
     34 H          -3.9859   -0.6242    2.3570 H       1  UNL11       0.0624
     35 H          -1.4963   -1.1150   -2.5222 H       1  UNL11       0.0662
@<TRIPOS>BOND
     1     1     2   am
     2     1    23    1
     3     1    24    1
     4     2     3    2
     5     2     4    1
     6     4     5   ar
     7     5     6   ar
     8     5    25    1
     9     6     7   ar
    10     6    26    1
    11     7     8   ar
    12     7    27    1
    13     8     9    1
    14     8    22   ar
    15     9    10    1
    16    10    11   ar
    17    11    12   ar
    18    12    13   ar
    19    12    28    1
    20    13    14   ar
    21    13    29    1
    22    14    15    1
    23    14    21   ar
    24    15    16   ar
    25    16    17   ar
    26    16    30    1
    27    17    18   ar
    28    17    31    1
    29    18    19   ar
    30    18    32    1
    31    19    20   ar
    32    19    33    1
    33    20    15   ar
    34    20    34    1
    35    21    10   ar
    36    22     4   ar
    37    22    35    1
@<TRIPOS>MOLECULE
*****
 35 37 0 0 0
SMALL
GASTEIGER

@<TRIPOS>ATOM
      1 N           1.7809   -0.6527   -7.4319 N.am    1  UNL11      -0.3253
      2 C           1.8714    0.0810   -6.2237 C.2     1  UNL11       0.2416
      3 O           2.7345    0.9909   -6.0654 O.2     1  UNL11      -0.2704
      4 C           0.9326   -0.2434   -5.1544 C.ar    1  UNL11       0.0400
      5 C          -0.3277   -0.7327   -5.4194 C.ar    1  UNL11      -0.0494
      6 C          -1.1978   -1.0329   -4.4106 C.ar    1  UNL11      -0.0576
      7 C          -0.7818   -0.8332   -3.1136 C.ar    1  UNL11      -0.0192
      8 C           0.4664   -0.3468   -2.7960 C.ar    1  UNL11       0.1326
      9 O           0.7881   -0.1818   -1.4592 O.3     1  UNL11      -0.4236
     10 C          -0.1653    0.1050   -0.4907 C.ar    1  UNL11       0.3239
     11 N           0.2225    0.8363    0.5748 N.ar    1  UNL11      -0.2030
     12 C          -0.6176    1.1685    1.5650 C.ar    1  UNL11       0.0350
     13 C          -1.9409    0.7161    1.4455 C.ar    1  UNL11      -0.0173
     14 C          -2.3671   -0.0285    0.3760 C.ar    1  UNL11       0.0778
     15 C          -3.7319   -0.4982    0.2473 C.ar    1  UNL11       0.0006
     16 C          -4.3733   -0.6985   -0.9410 C.ar    1  UNL11      -0.0526
     17 C          -5.6992   -1.1561   -0.9974 C.ar    1  UNL11      -0.0611
     18 C          -6.3878   -1.4150    0.1471 C.ar    1  UNL11      -0.0617
     19 C          -5.7651   -1.2216    1.3594 C.ar    1  UNL11      -0.0611
     20 C          -4.4625   -0.7719    1.4104 C.ar    1  UNL11      -0.0526
     21 N          -1.4370   -0.3172   -0.5841 N.ar    1  UNL11      -0.1946
     22 C           1.3233   -0.0526   -3.8326 C.ar    1  UNL11      -0.0071
     23 H           2.6270   -1.1795   -7.8020 H       1  UNL11       0.1453
     24 H           0.9111   -0.7016   -7.9835 H       1  UNL11       0.1453
     25 H          -0.6173   -0.8766   -6.4712 H       1  UNL11       0.0625
     26 H          -2.1851   -1.4157   -4.5966 H       1  UNL11       0.0619
     27 H          -1.4519   -1.0634   -2.3050 H       1  UNL11       0.0654
     28 H          -0.3281    1.7549    2.4303 H       1  UNL11       0.0832
     29 H          -2.6449    0.9759    2.2434 H       1  UNL11       0.0654
     30 H          -3.8604   -0.5044   -1.8590 H       1  UNL11       0.0624
     31 H          -6.1932   -1.3095   -1.9560 H       1  UNL11       0.0618
     32 H          -7.4103   -1.7671    0.0625 H       1  UNL11       0.0618
     33 H          -6.3414   -1.4373    2.2636 H       1  UNL11       0.0618
     34 H          -3.9859   -0.6242    2.3570 H       1  UNL11       0.0624
     35 H           2.3069    0.3297   -3.6158 H       1  UNL11       0.0662
@<TRIPOS>BOND
     1     1     2   am
     2     1    23    1
     3     1    24    1
     4     2     3    2
     5     2     4    1
     6     4     5   ar
     7     5     6   ar
     8     5    25    1
     9     6     7   ar
    10     6    26    1
    11     7     8   ar
    12     7    27    1
    13     8     9    1
    14     8    22   ar
    15     9    10    1
    16    10    11   ar
    17    11    12   ar
    18    12    13   ar
    19    12    28    1
    20    13    14   ar
    21    13    29    1
    22    14    15    1
    23    14    21   ar
    24    15    16   ar
    25    16    17   ar
    26    16    30    1
    27    17    18   ar
    28    17    31    1
    29    18    19   ar
    30    18    32    1
    31    19    20   ar
    32    19    33    1
    33    20    15   ar
    34    20    34    1
    35    21    10   ar
    36    22     4   ar
    37    22    35    1
@<TRIPOS>MOLECULE
*****
 35 37 0 0 0
SMALL
GASTEIGER

@<TRIPOS>ATOM
      1 N           3.1156   -1.3100   -5.8911 N.am    1  UNL11      -0.3253
      2 C           2.0652   -2.2426   -5.7096 C.2     1  UNL11       0.2416
      3 O           1.9945   -3.3014   -6.3965 O.2     1  UNL11      -0.2704
      4 C           1.0552   -1.9471   -4.6983 C.ar    1  UNL11       0.0400
      5 C          -0.2468   -2.3787   -4.8258 C.ar    1  UNL11      -0.0494
      6 C          -1.1835   -2.0963   -3.8731 C.ar    1  UNL11      -0.0576
      7 C          -0.7920   -1.3646   -2.7746 C.ar    1  UNL11      -0.0192
      8 C           0.4959   -0.9102   -2.6002 C.ar    1  UNL11       0.1326
      9 O           0.7881   -0.1818   -1.4592 O.3     1  UNL11      -0.4236
     10 C          -0.1653    0.1050   -0.4907 C.ar    1  UNL11       0.3239
     11 N           0.2225    0.8363    0.5748 N.ar    1  UNL11      -0.2030
     12 C          -0.6176    1.1685    1.5650 C.ar    1  UNL11       0.0350
     13 C          -1.9409    0.7161    1.4455 C.ar    1  UNL11      -0.0173
     14 C          -2.3671   -0.0285    0.3760 C.ar    1  UNL11       0.0778
     15 C          -3.7319   -0.4982    0.2473 C.ar    1  UNL11       0.0006
     16 C          -4.8236    0.1453    0.7549 C.ar    1  UNL11      -0.0526
     17 C          -6.1221   -0.3636    0.5953 C.ar    1  UNL11      -0.0611
     18 C          -6.3279   -1.5274   -0.0788 C.ar    1  UNL11      -0.0617
     19 C          -5.2445   -2.1970   -0.6012 C.ar    1  UNL11      -0.0611
     20 C          -3.9706   -1.6937   -0.4422 C.ar    1  UNL11      -0.0526
     21 N          -1.4370   -0.3172   -0.5841 N.ar    1  UNL11      -0.1946
     22 C           1.4196   -1.2095   -3.5761 C.ar    1  UNL11      -0.0071
     23 H           3.2912   -0.8823   -6.8484 H       1  UNL11       0.1453
     24 H           3.7338   -1.0186   -5.1190 H       1  UNL11       0.1453
     25 H          -0.5148   -2.9607   -5.7205 H       1  UNL11       0.0625
     26 H          -2.2042   -2.4240   -3.9541 H       1  UNL11       0.0619
     27 H          -1.5143   -1.1317   -2.0132 H       1  UNL11       0.0654
     28 H          -0.3281    1.7549    2.4303 H       1  UNL11       0.0832
     29 H          -2.6449    0.9759    2.2434 H       1  UNL11       0.0654
     30 H          -4.6965    1.0622    1.2901 H       1  UNL11       0.0624
     31 H          -6.9802    0.1652    1.0082 H       1  UNL11       0.0618
     32 H          -7.3456   -1.8883   -0.1812 H       1  UNL11       0.0618
     33 H          -5.4381   -3.1298   -1.1385 H       1  UNL11       0.0618
     34 H          -3.1340   -2.2206   -0.8514 H       1  UNL11       0.0624
     35 H           2.4356   -0.8676   -3.4679 H       1  UNL11       0.0662
@<TRIPOS>BOND
     1     1     2   am
     2     1    23    1
     3     1    24    1
     4     2     3    2
     5     2     4    1
     6     4     5   ar
     7     5     6   ar
     8     5    25    1
     9     6     7   ar
    10     6    26    1
    11     7     8   ar
    12     7    27    1
    13     8     9    1
    14     8    22   ar
    15     9    10    1
    16    10    11   ar
    17    11    12   ar
    18    12    13   ar
    19    12    28    1
    20    13    14   ar
    21    13    29    1
    22    14    15    1
    23    14    21   ar
    24    15    16   ar
    25    16    17   ar
    26    16    30    1
    27    17    18   ar
    28    17    31    1
    29    18    19   ar
    30    18    32    1
    31    19    20   ar
    32    19    33    1
    33    20    15   ar
    34    20    34    1
    35    21    10   ar
    36    22     4   ar
    37    22    35    1
@<TRIPOS>MOLECULE
*****
 35 37 0 0 0
SMALL
GASTEIGER

@<TRIPOS>ATOM
      1 N          -1.9877   -4.3281   -2.6572 N.am    1  UNL11      -0.3253
      2 C          -1.7389   -3.6180   -3.8572 C.2     1  UNL11       0.2416
      3 O          -2.3835   -3.8631   -4.9167 O.2     1  UNL11      -0.2704
      4 C          -0.7083   -2.5847   -3.8395 C.ar    1  UNL11       0.0400
      5 C           0.0309   -2.2785   -4.9610 C.ar    1  UNL11      -0.0494
      6 C           0.9928   -1.3095   -4.9327 C.ar    1  UNL11      -0.0576
      7 C           1.2071   -0.6419   -3.7481 C.ar    1  UNL11      -0.0192
      8 C           0.4959   -0.9102   -2.6002 C.ar    1  UNL11       0.1326
      9 O           0.7881   -0.1818   -1.4592 O.3     1  UNL11      -0.4236
     10 C          -0.1653    0.1050   -0.4907 C.ar    1  UNL11       0.3239
     11 N           0.2225    0.8363    0.5748 N.ar    1  UNL11      -0.2030
     12 C          -0.6176    1.1685    1.5650 C.ar    1  UNL11       0.0350
     13 C          -1.9409    0.7161    1.4455 C.ar    1  UNL11      -0.0173
     14 C          -2.3671   -0.0285    0.3760 C.ar    1  UNL11       0.0778
     15 C          -3.7319   -0.4982    0.2473 C.ar    1  UNL11       0.0006
     16 C          -4.8236    0.1453    0.7549 C.ar    1  UNL11      -0.0526
     17 C          -6.1221   -0.3636    0.5953 C.ar    1  UNL11      -0.0611
     18 C          -6.3279   -1.5274   -0.0788 C.ar    1  UNL11      -0.0617
     19 C          -5.2445   -2.1970   -0.6012 C.ar    1  UNL11      -0.0611
     20 C          -3.9706   -1.6937   -0.4422 C.ar    1  UNL11      -0.0526
     21 N          -1.4370   -0.3172   -0.5841 N.ar    1  UNL11      -0.1946
     22 C          -0.4678   -1.8918   -2.6571 C.ar    1  UNL11      -0.0071
     23 H          -1.9137   -5.3885   -2.6384 H       1  UNL11       0.1453
     24 H          -2.2435   -3.8532   -1.7784 H       1  UNL11       0.1453
     25 H          -0.1747   -2.8377   -5.8861 H       1  UNL11       0.0625
     26 H           1.5800   -1.0558   -5.7968 H       1  UNL11       0.0619
     27 H           1.9599    0.1245   -3.7049 H       1  UNL11       0.0654
     28 H          -0.3281    1.7549    2.4303 H       1  UNL11       0.0832
     29 H          -2.6449    0.9759    2.2434 H       1  UNL11       0.0654
     30 H          -4.6965    1.0622    1.2901 H       1  UNL11       0.0624
     31 H          -6.9802    0.1652    1.0082 H       1  UNL11       0.0618
     32 H          -7.3456   -1.8883   -0.1812 H       1  UNL11       0.0618
     33 H          -5.4381   -3.1298   -1.1385 H       1  UNL11       0.0618
     34 H          -3.1340   -2.2206   -0.8514 H       1  UNL11       0.0624
     35 H          -1.0409   -2.1246   -1.7750 H       1  UNL11       0.0662
@<TRIPOS>BOND
     1     1     2   am
     2     1    23    1
     3     1    24    1
     4     2     3    2
     5     2     4    1
     6     4     5   ar
     7     5     6   ar
     8     5    25    1
     9     6     7   ar
    10     6    26    1
    11     7     8   ar
    12     7    27    1
    13     8     9    1
    14     8    22   ar
    15     9    10    1
    16    10    11   ar
    17    11    12   ar
    18    12    13   ar
    19    12    28    1
    20    13    14   ar
    21    13    29    1
    22    14    15    1
    23    14    21   ar
    24    15    16   ar
    25    16    17   ar
    26    16    30    1
    27    17    18   ar
    28    17    31    1
    29    18    19   ar
    30    18    32    1
    31    19    20   ar
    32    19    33    1
    33    20    15   ar
    34    20    34    1
    35    21    10   ar
    36    22     4   ar
    37    22    35    1
@<TRIPOS>MOLECULE
*****
 35 37 0 0 0
SMALL
GASTEIGER

@<TRIPOS>ATOM
      1 N          -0.2468   -5.1501   -0.7000 N.am    1  UNL11      -0.3253
      2 C          -0.3323   -4.9028   -2.0920 C.2     1  UNL11       0.2416
      3 O          -0.8750   -5.7301   -2.8788 O.2     1  UNL11      -0.2704
      4 C           0.2281   -3.6549   -2.6007 C.ar    1  UNL11       0.0400
      5 C           0.7524   -3.5601   -3.8712 C.ar    1  UNL11      -0.0494
      6 C           1.2742   -2.3871   -4.3366 C.ar    1  UNL11      -0.0576
      7 C           1.2634   -1.2943   -3.4994 C.ar    1  UNL11      -0.0192
      8 C           0.7516   -1.3370   -2.2220 C.ar    1  UNL11       0.1326
      9 O           0.7881   -0.1818   -1.4592 O.3     1  UNL11      -0.4236
     10 C          -0.1653    0.1050   -0.4907 C.ar    1  UNL11       0.3239
     11 N           0.2225    0.8363    0.5748 N.ar    1  UNL11      -0.2030
     12 C          -0.6176    1.1685    1.5650 C.ar    1  UNL11       0.0350
     13 C          -1.9409    0.7161    1.4455 C.ar    1  UNL11      -0.0173
     14 C          -2.3671   -0.0285    0.3760 C.ar    1  UNL11       0.0778
     15 C          -3.7319   -0.4982    0.2473 C.ar    1  UNL11       0.0006
     16 C          -4.8236    0.1453    0.7549 C.ar    1  UNL11      -0.0526
     17 C          -6.1221   -0.3636    0.5953 C.ar    1  UNL11      -0.0611
     18 C          -6.3279   -1.5274   -0.0788 C.ar    1  UNL11      -0.0617
     19 C          -5.2445   -2.1970   -0.6012 C.ar    1  UNL11      -0.0611
     20 C          -3.9706   -1.6937   -0.4422 C.ar    1  UNL11      -0.0526
     21 N          -1.4370   -0.3172   -0.5841 N.ar    1  UNL11      -0.1946
     22 C           0.2319   -2.5323   -1.7786 C.ar    1  UNL11      -0.0071
     23 H           0.2253   -6.0329   -0.3420 H       1  UNL11       0.1453
     24 H          -0.6304   -4.4979    0.0005 H       1  UNL11       0.1453
     25 H           0.7398   -4.4591   -4.5056 H       1  UNL11       0.0625
     26 H           1.6877   -2.2926   -5.3245 H       1  UNL11       0.0619
     27 H           1.6695   -0.3615   -3.8469 H       1  UNL11       0.0654
     28 H          -0.3281    1.7549    2.4303 H       1  UNL11       0.0832
     29 H          -2.6449    0.9759    2.2434 H       1  UNL11       0.0654
     30 H          -4.6965    1.0622    1.2901 H       1  UNL11       0.0624
     31 H          -6.9802    0.1652    1.0082 H       1  UNL11       0.0618
     32 H          -7.3456   -1.8883   -0.1812 H       1  UNL11       0.0618
     33 H          -5.4381   -3.1298   -1.1385 H       1  UNL11       0.0618
     34 H          -3.1340   -2.2206   -0.8514 H       1  UNL11       0.0624
     35 H          -0.1758   -2.5971   -0.7835 H       1  UNL11       0.0662
@<TRIPOS>BOND
     1     1     2   am
     2     1    23    1
     3     1    24    1
     4     2     3    2
     5     2     4    1
     6     4     5   ar
     7     5     6   ar
     8     5    25    1
     9     6     7   ar
    10     6    26    1
    11     7     8   ar
    12     7    27    1
    13     8     9    1
    14     8    22   ar
    15     9    10    1
    16    10    11   ar
    17    11    12   ar
    18    12    13   ar
    19    12    28    1
    20    13    14   ar
    21    13    29    1
    22    14    15    1
    23    14    21   ar
    24    15    16   ar
    25    16    17   ar
    26    16    30    1
    27    17    18   ar
    28    17    31    1
    29    18    19   ar
    30    18    32    1
    31    19    20   ar
    32    19    33    1
    33    20    15   ar
    34    20    34    1
    35    21    10   ar
    36    22     4   ar
    37    22    35    1
@<TRIPOS>MOLECULE
*****
 35 37 0 0 0
SMALL
GASTEIGER

@<TRIPOS>ATOM
      1 N           4.2213    2.1950    1.5234 N.am    1  UNL11      -0.3253
      2 C           4.7521    0.9255    1.1872 C.2     1  UNL11       0.2416
      3 O           5.7396    0.4363    1.8066 O.2     1  UNL11      -0.2704
      4 C           4.1234    0.1884    0.0957 C.ar    1  UNL11       0.0400
      5 C           4.8393   -0.6774   -0.7016 C.ar    1  UNL11      -0.0494
      6 C           4.2404   -1.3619   -1.7203 C.ar    1  UNL11      -0.0576
      7 C           2.8946   -1.1641   -1.9322 C.ar    1  UNL11      -0.0192
      8 C           2.1350   -0.3105   -1.1642 C.ar    1  UNL11       0.1326
      9 O           0.7881   -0.1818   -1.4592 O.3     1  UNL11      -0.4236
     10 C          -0.1653    0.1050   -0.4907 C.ar    1  UNL11       0.3239
     11 N           0.2225    0.8363    0.5748 N.ar    1  UNL11      -0.2030
     12 C          -0.6176    1.1685    1.5650 C.ar    1  UNL11       0.0350
     13 C          -1.9409    0.7161    1.4455 C.ar    1  UNL11      -0.0173
     14 C          -2.3671   -0.0285    0.3760 C.ar    1  UNL11       0.0778
     15 C          -3.7319   -0.4982    0.2473 C.ar    1  UNL11       0.0006
     16 C          -4.5540   -0.7869    1.2982 C.ar    1  UNL11      -0.0526
     17 C          -5.8689   -1.2391    1.1055 C.ar    1  UNL11      -0.0611
     18 C          -6.3638   -1.4032   -0.1512 C.ar    1  UNL11      -0.0617
     19 C          -5.5562   -1.1193   -1.2292 C.ar    1  UNL11      -0.0611
     20 C          -4.2650   -0.6754   -1.0356 C.ar    1  UNL11      -0.0526
     21 N          -1.4370   -0.3172   -0.5841 N.ar    1  UNL11      -0.1946
     22 C           2.7644    0.3666   -0.1440 C.ar    1  UNL11      -0.0071
     23 H           4.8466    3.0547    1.5163 H       1  UNL11       0.1453
     24 H           3.2319    2.3282    1.7811 H       1  UNL11       0.1453
     25 H           5.9127   -0.8045   -0.4956 H       1  UNL11       0.0625
     26 H           4.7814   -2.0419   -2.3533 H       1  UNL11       0.0619
     27 H           2.4043   -1.6936   -2.7292 H       1  UNL11       0.0654
     28 H          -0.3281    1.7549    2.4303 H       1  UNL11       0.0832
     29 H          -2.6449    0.9759    2.2434 H       1  UNL11       0.0654
     30 H          -4.1959   -0.6687    2.2988 H       1  UNL11       0.0624
     31 H          -6.5090   -1.4641    1.9577 H       1  UNL11       0.0618
     32 H          -7.3843   -1.7543   -0.2593 H       1  UNL11       0.0618
     33 H          -5.9789   -1.2598   -2.2281 H       1  UNL11       0.0618
     34 H          -3.6440   -0.4571   -1.8792 H       1  UNL11       0.0624
     35 H           2.1965    1.0418    0.4743 H       1  UNL11       0.0662
@<TRIPOS>BOND
     1     1     2   am
     2     1    23    1
     3     1    24    1
     4     2     3    2
     5     2     4    1
     6     4     5   ar
     7     5     6   ar
     8     5    25    1
     9     6     7   ar
    10     6    26    1
    11     7     8   ar
    12     7    27    1
    13     8     9    1
    14     8    22   ar
    15     9    10    1
    16    10    11   ar
    17    11    12   ar
    18    12    13   ar
    19    12    28    1
    20    13    14   ar
    21    13    29    1
    22    14    15    1
    23    14    21   ar
    24    15    16   ar
    25    16    17   ar
    26    16    30    1
    27    17    18   ar
    28    17    31    1
    29    18    19   ar
    30    18    32    1
    31    19    20   ar
    32    19    33    1
    33    20    15   ar
    34    20    34    1
    35    21    10   ar
    36    22     4   ar
    37    22    35    1
@<TRIPOS>MOLECULE
*****
 35 37 0 0 0
SMALL
GASTEIGER

@<TRIPOS>ATOM
      1 N           2.1999   -3.8937   -6.0527 N.am    1  UNL11      -0.3253
      2 C           2.5904   -3.1192   -4.9329 C.2     1  UNL11       0.2416
      3 O           3.7721   -2.6882   -4.8063 O.2     1  UNL11      -0.2704
      4 C           1.5831   -2.8281   -3.9177 C.ar    1  UNL11       0.0400
      5 C           0.5390   -3.6902   -3.6639 C.ar    1  UNL11      -0.0494
      6 C          -0.3979   -3.4074   -2.7115 C.ar    1  UNL11      -0.0576
      7 C          -0.2725   -2.2316   -2.0065 C.ar    1  UNL11      -0.0192
      8 C           0.7516   -1.3370   -2.2220 C.ar    1  UNL11       0.1326
      9 O           0.7881   -0.1818   -1.4592 O.3     1  UNL11      -0.4236
     10 C          -0.1653    0.1050   -0.4907 C.ar    1  UNL11       0.3239
     11 N           0.2225    0.8363    0.5748 N.ar    1  UNL11      -0.2030
     12 C          -0.6176    1.1685    1.5650 C.ar    1  UNL11       0.0350
     13 C          -1.9409    0.7161    1.4455 C.ar    1  UNL11      -0.0173
     14 C          -2.3671   -0.0285    0.3760 C.ar    1  UNL11       0.0778
     15 C          -3.7319   -0.4982    0.2473 C.ar    1  UNL11       0.0006
     16 C          -4.3733   -0.6985   -0.9410 C.ar    1  UNL11      -0.0526
     17 C          -5.6992   -1.1561   -0.9974 C.ar    1  UNL11      -0.0611
     18 C          -6.3878   -1.4150    0.1471 C.ar    1  UNL11      -0.0617
     19 C          -5.7651   -1.2216    1.3594 C.ar    1  UNL11      -0.0611
     20 C          -4.4625   -0.7719    1.4104 C.ar    1  UNL11      -0.0526
     21 N          -1.4370   -0.3172   -0.5841 N.ar    1  UNL11      -0.1946
     22 C           1.6821   -1.6474   -3.1880 C.ar    1  UNL11      -0.0071
     23 H           2.7160   -4.7933   -6.2865 H       1  UNL11       0.1453
     24 H           1.4189   -3.6194   -6.6675 H       1  UNL11       0.1453
     25 H           0.4786   -4.6185   -4.2517 H       1  UNL11       0.0625
     26 H          -1.2198   -4.0669   -2.4985 H       1  UNL11       0.0619
     27 H          -0.9998   -1.9904   -1.2523 H       1  UNL11       0.0654
     28 H          -0.3281    1.7549    2.4303 H       1  UNL11       0.0832
     29 H          -2.6449    0.9759    2.2434 H       1  UNL11       0.0654
     30 H          -3.8604   -0.5044   -1.8590 H       1  UNL11       0.0624
     31 H          -6.1932   -1.3095   -1.9560 H       1  UNL11       0.0618
     32 H          -7.4103   -1.7671    0.0625 H       1  UNL11       0.0618
     33 H          -6.3414   -1.4373    2.2636 H       1  UNL11       0.0618
     34 H          -3.9859   -0.6242    2.3570 H       1  UNL11       0.0624
     35 H           2.4952   -0.9671   -3.3798 H       1  UNL11       0.0662
@<TRIPOS>BOND
     1     1     2   am
     2     1    23    1
     3     1    24    1
     4     2     3    2
     5     2     4    1
     6     4     5   ar
     7     5     6   ar
     8     5    25    1
     9     6     7   ar
    10     6    26    1
    11     7     8   ar
    12     7    27    1
    13     8     9    1
    14     8    22   ar
    15     9    10    1
    16    10    11   ar
    17    11    12   ar
    18    12    13   ar
    19    12    28    1
    20    13    14   ar
    21    13    29    1
    22    14    15    1
    23    14    21   ar
    24    15    16   ar
    25    16    17   ar
    26    16    30    1
    27    17    18   ar
    28    17    31    1
    29    18    19   ar
    30    18    32    1
    31    19    20   ar
    32    19    33    1
    33    20    15   ar
    34    20    34    1
    35    21    10   ar
    36    22     4   ar
    37    22    35    1
@<TRIPOS>MOLECULE
*****
 35 37 0 0 0
SMALL
GASTEIGER

@<TRIPOS>ATOM
      1 N           2.2176   -3.9052   -6.0388 N.am    1  UNL11      -0.3253
      2 C           1.7066   -2.6697   -5.5714 C.2     1  UNL11       0.2416
      3 O           1.7072   -1.6359   -6.2989 O.2     1  UNL11      -0.2704
      4 C           1.1733   -2.6197   -4.2137 C.ar    1  UNL11       0.0400
      5 C           0.6035   -3.7230   -3.6173 C.ar    1  UNL11      -0.0494
      6 C           0.1077   -3.6645   -2.3462 C.ar    1  UNL11      -0.0576
      7 C           0.1920   -2.4678   -1.6710 C.ar    1  UNL11      -0.0192
      8 C           0.7516   -1.3370   -2.2220 C.ar    1  UNL11       0.1326
      9 O           0.7881   -0.1818   -1.4592 O.3     1  UNL11      -0.4236
     10 C          -0.1653    0.1050   -0.4907 C.ar    1  UNL11       0.3239
     11 N           0.2225    0.8363    0.5748 N.ar    1  UNL11      -0.2030
     12 C          -0.6176    1.1685    1.5650 C.ar    1  UNL11       0.0350
     13 C          -1.9409    0.7161    1.4455 C.ar    1  UNL11      -0.0173
     14 C          -2.3671   -0.0285    0.3760 C.ar    1  UNL11       0.0778
     15 C          -3.7319   -0.4982    0.2473 C.ar    1  UNL11       0.0006
     16 C          -4.3733   -0.6985   -0.9410 C.ar    1  UNL11      -0.0526
     17 C          -5.6992   -1.1561   -0.9974 C.ar    1  UNL11      -0.0611
     18 C          -6.3878   -1.4150    0.1471 C.ar    1  UNL11      -0.0617
     19 C          -5.7651   -1.2216    1.3594 C.ar    1  UNL11      -0.0611
     20 C          -4.4625   -0.7719    1.4104 C.ar    1  UNL11      -0.0526
     21 N          -1.4370   -0.3172   -0.5841 N.ar    1  UNL11      -0.1946
     22 C           1.2436   -1.4244   -3.5049 C.ar    1  UNL11      -0.0071
     23 H           3.2174   -3.9699   -6.3944 H       1  UNL11       0.1453
     24 H           1.6515   -4.7670   -6.0508 H       1  UNL11       0.1453
     25 H           0.5576   -4.6587   -4.1946 H       1  UNL11       0.0625
     26 H          -0.3405   -4.5141   -1.8633 H       1  UNL11       0.0619
     27 H          -0.1925   -2.4009   -0.6692 H       1  UNL11       0.0654
     28 H          -0.3281    1.7549    2.4303 H       1  UNL11       0.0832
     29 H          -2.6449    0.9759    2.2434 H       1  UNL11       0.0654
     30 H          -3.8604   -0.5044   -1.8590 H       1  UNL11       0.0624
     31 H          -6.1932   -1.3095   -1.9560 H       1  UNL11       0.0618
     32 H          -7.4103   -1.7671    0.0625 H       1  UNL11       0.0618
     33 H          -6.3414   -1.4373    2.2636 H       1  UNL11       0.0618
     34 H          -3.9859   -0.6242    2.3570 H       1  UNL11       0.0624
     35 H           1.6874   -0.5563   -3.9633 H       1  UNL11       0.0662
@<TRIPOS>BOND
     1     1     2   am
     2     1    23    1
     3     1    24    1
     4     2     3    2
     5     2     4    1
     6     4     5   ar
     7     5     6   ar
     8     5    25    1
     9     6     7   ar
    10     6    26    1
    11     7     8   ar
    12     7    27    1
    13     8     9    1
    14     8    22   ar
    15     9    10    1
    16    10    11   ar
    17    11    12   ar
    18    12    13   ar
    19    12    28    1
    20    13    14   ar
    21    13    29    1
    22    14    15    1
    23    14    21   ar
    24    15    16   ar
    25    16    17   ar
    26    16    30    1
    27    17    18   ar
    28    17    31    1
    29    18    19   ar
    30    18    32    1
    31    19    20   ar
    32    19    33    1
    33    20    15   ar
    34    20    34    1
    35    21    10   ar
    36    22     4   ar
    37    22    35    1
