@<TRIPOS>MOLECULE
*****
 37 39 0 0 0
SMALL
GASTEIGER

@<TRIPOS>ATOM
      1 O           0.2248    2.5859   -0.8193 O.2     1  UNL11      -0.2754
      2 C           0.0974    1.6852    0.0714 C.2     1  UNL11       0.2193
      3 C          -1.0135    1.8440    1.0476 C.3     1  UNL11       0.0725
      4 C          -2.2447    1.1817    0.5584 C.2     1  UNL11       0.1237
      5 N          -3.4512    1.6662    0.9026 N.2     1  UNL11      -0.0071
      6 N          -4.5804    1.1165    0.4946 N.am    1  UNL11      -0.0356
      7 C          -4.6171    0.0270   -0.2986 C.2     1  UNL11       0.4383
      8 O          -5.6832   -0.4851   -0.6788 O.2     1  UNL11      -0.2116
      9 C          -3.3932   -0.5121   -0.6824 C.ar    1  UNL11       0.1004
     10 C          -3.3275   -1.6206   -1.4876 C.ar    1  UNL11      -0.0441
     11 C          -2.0995   -2.1402   -1.8561 C.ar    1  UNL11      -0.0608
     12 C          -0.9080   -1.5664   -1.4301 C.ar    1  UNL11      -0.0611
     13 C          -1.0143   -0.4536   -0.6220 C.ar    1  UNL11      -0.0518
     14 C          -2.2168    0.0654   -0.2539 C.ar    1  UNL11       0.0194
     15 N           0.9771    0.5931    0.1167 N.am    1  UNL11      -0.3109
     16 C           0.8471   -0.4559    1.1107 C.3     1  UNL11       0.0368
     17 C          -0.0124   -1.5662    0.6656 C.ar    1  UNL11      -0.0302
     18 C           0.4852   -2.8362    0.5771 C.ar    1  UNL11      -0.0544
     19 C          -0.3387   -3.8726    0.1497 C.ar    1  UNL11      -0.0261
     20 C          -1.6437   -3.6565   -0.1875 C.ar    1  UNL11       0.1234
     21 F          -2.4687   -4.6652   -0.6101 F       1  UNL11      -0.2055
     22 C          -2.1529   -2.3783   -0.1007 C.ar    1  UNL11      -0.0261
     23 C          -1.3243   -1.3354    0.3291 C.ar    1  UNL11      -0.0544
     24 H          -0.7266    1.5027    2.0643 H       1  UNL11       0.0424
     25 H          -1.2237    2.9286    1.1333 H       1  UNL11       0.0424
     26 H          -5.5248    1.5051    0.7706 H       1  UNL11       0.4829
     27 H          -4.2244   -2.0797   -1.8266 H       1  UNL11       0.0627
     28 H          -2.0499   -3.0208   -2.4960 H       1  UNL11       0.0618
     29 H           0.0378   -1.9949   -1.7342 H       1  UNL11       0.0618
     30 H          -0.1066    0.0138   -0.2766 H       1  UNL11       0.0624
     31 H           1.7436    0.5778   -0.6141 H       1  UNL11       0.1490
     32 H           1.8709   -0.8382    1.3929 H       1  UNL11       0.0512
     33 H           0.4531    0.0000    2.0646 H       1  UNL11       0.0512
     34 H           1.5066   -3.1000    0.8261 H       1  UNL11       0.0622
     35 H           0.0671   -4.8804    0.0827 H       1  UNL11       0.0646
     36 H          -3.1812   -2.1649   -0.3591 H       1  UNL11       0.0646
     37 H          -1.7426   -0.3204    0.3934 H       1  UNL11       0.0622
@<TRIPOS>BOND
     1     1     2    2
     2     2     3    1
     3     2    15   am
     4     3     4    1
     5     3    24    1
     6     3    25    1
     7     4     5    2
     8     5     6    1
     9     6     7   am
    10     6    26    1
    11     7     8    2
    12     7     9    1
    13     9    10   ar
    14    10    11   ar
    15    10    27    1
    16    11    12   ar
    17    11    28    1
    18    12    13   ar
    19    12    29    1
    20    13    14   ar
    21    13    30    1
    22    14     4    1
    23    14     9   ar
    24    15    16    1
    25    15    31    1
    26    16    17    1
    27    16    32    1
    28    16    33    1
    29    17    18   ar
    30    18    19   ar
    31    18    34    1
    32    19    20   ar
    33    19    35    1
    34    20    21    1
    35    20    22   ar
    36    22    23   ar
    37    22    36    1
    38    23    17   ar
    39    23    37    1
@<TRIPOS>MOLECULE
*****
 37 39 0 0 0
SMALL
GASTEIGER

@<TRIPOS>ATOM
      1 O           1.2214    2.1986    0.3778 O.2     1  UNL11      -0.2754
      2 C           0.0974    1.6852    0.0714 C.2     1  UNL11       0.2193
      3 C          -1.0135    1.8440    1.0476 C.3     1  UNL11       0.0725
      4 C          -2.2447    1.1817    0.5584 C.2     1  UNL11       0.1237
      5 N          -2.8059    0.1916    1.2750 N.2     1  UNL11      -0.0071
      6 N          -3.9031   -0.4324    0.8871 N.am    1  UNL11      -0.0356
      7 C          -4.5498   -0.1292   -0.2563 C.2     1  UNL11       0.4383
      8 O          -5.5819   -0.7204   -0.6153 O.2     1  UNL11      -0.2116
      9 C          -4.0077    0.8895   -1.0335 C.ar    1  UNL11       0.1004
     10 C          -4.5933    1.2693   -2.2142 C.ar    1  UNL11      -0.0441
     11 C          -4.0364    2.2843   -2.9714 C.ar    1  UNL11      -0.0608
     12 C          -2.8821    2.9446   -2.5687 C.ar    1  UNL11      -0.0611
     13 C          -2.3222    2.5351   -1.3765 C.ar    1  UNL11      -0.0518
     14 C          -2.8618    1.5382   -0.6243 C.ar    1  UNL11       0.0194
     15 N          -0.0706    1.0008   -1.1418 N.am    1  UNL11      -0.3109
     16 C          -1.3435    0.4187   -1.5244 C.3     1  UNL11       0.0368
     17 C          -1.8285   -0.5857   -0.5623 C.ar    1  UNL11      -0.0302
     18 C          -3.1690   -0.7813   -0.3803 C.ar    1  UNL11      -0.0544
     19 C          -3.6103   -1.7304    0.5364 C.ar    1  UNL11      -0.0261
     20 C          -2.7346   -2.4802    1.2674 C.ar    1  UNL11       0.1234
     21 F          -3.1519   -3.4187    2.1740 F       1  UNL11      -0.2055
     22 C          -1.3811   -2.2887    1.0894 C.ar    1  UNL11      -0.0261
     23 C          -0.9368   -1.3340    0.1674 C.ar    1  UNL11      -0.0544
     24 H          -0.7266    1.5027    2.0643 H       1  UNL11       0.0424
     25 H          -1.2237    2.9286    1.1333 H       1  UNL11       0.0424
     26 H          -4.3372   -1.2101    1.4578 H       1  UNL11       0.4829
     27 H          -5.4766    0.7796   -2.5459 H       1  UNL11       0.0627
     28 H          -4.5037    2.5844   -3.9090 H       1  UNL11       0.0618
     29 H          -2.4692    3.7346   -3.1817 H       1  UNL11       0.0618
     30 H          -1.4264    3.0297   -1.0378 H       1  UNL11       0.0624
     31 H           0.7845    0.9305   -1.7628 H       1  UNL11       0.1490
     32 H          -2.1084    1.2377   -1.6590 H       1  UNL11       0.0512
     33 H          -1.2385   -0.0292   -2.5545 H       1  UNL11       0.0512
     34 H          -3.9346   -0.2339   -0.9179 H       1  UNL11       0.0622
     35 H          -4.6798   -1.8787    0.6739 H       1  UNL11       0.0646
     36 H          -0.6545   -2.8618    1.6491 H       1  UNL11       0.0646
     37 H           0.1455   -1.1906    0.0352 H       1  UNL11       0.0622
@<TRIPOS>BOND
     1     1     2    2
     2     2     3    1
     3     2    15   am
     4     3     4    1
     5     3    24    1
     6     3    25    1
     7     4     5    2
     8     5     6    1
     9     6     7   am
    10     6    26    1
    11     7     8    2
    12     7     9    1
    13     9    10   ar
    14    10    11   ar
    15    10    27    1
    16    11    12   ar
    17    11    28    1
    18    12    13   ar
    19    12    29    1
    20    13    14   ar
    21    13    30    1
    22    14     4    1
    23    14     9   ar
    24    15    16    1
    25    15    31    1
    26    16    17    1
    27    16    32    1
    28    16    33    1
    29    17    18   ar
    30    18    19   ar
    31    18    34    1
    32    19    20   ar
    33    19    35    1
    34    20    21    1
    35    20    22   ar
    36    22    23   ar
    37    22    36    1
    38    23    17   ar
    39    23    37    1
@<TRIPOS>MOLECULE
*****
 37 39 0 0 0
SMALL
GASTEIGER

@<TRIPOS>ATOM
      1 O           1.2214    2.1986    0.3778 O.2     1  UNL11      -0.2754
      2 C           0.0974    1.6852    0.0714 C.2     1  UNL11       0.2193
      3 C          -1.0135    1.8440    1.0476 C.3     1  UNL11       0.0725
      4 C          -2.2447    1.1817    0.5584 C.2     1  UNL11       0.1237
      5 N          -3.1291    1.8705   -0.1847 N.2     1  UNL11      -0.0071
      6 N          -4.2416    1.3303   -0.6475 N.am    1  UNL11      -0.0356
      7 C          -4.5819    0.0468   -0.4140 C.2     1  UNL11       0.4383
      8 O          -5.6303   -0.4552   -0.8526 O.2     1  UNL11      -0.2116
      9 C          -3.6983   -0.7082    0.3509 C.ar    1  UNL11       0.1004
     10 C          -3.9575   -2.0230    0.6429 C.ar    1  UNL11      -0.0441
     11 C          -3.0652   -2.7546    1.4060 C.ar    1  UNL11      -0.0608
     12 C          -1.8931   -2.1918    1.8959 C.ar    1  UNL11      -0.0611
     13 C          -1.6669   -0.8679    1.5815 C.ar    1  UNL11      -0.0518
     14 C          -2.5379   -0.1396    0.8319 C.ar    1  UNL11       0.0194
     15 N          -0.0706    1.0008   -1.1418 N.am    1  UNL11      -0.3109
     16 C          -1.3435    0.4187   -1.5244 C.3     1  UNL11       0.0368
     17 C          -1.4955   -0.9761   -1.0761 C.ar    1  UNL11      -0.0302
     18 C          -0.6116   -1.9359   -1.4834 C.ar    1  UNL11      -0.0544
     19 C          -0.7728   -3.2498   -1.0550 C.ar    1  UNL11      -0.0261
     20 C          -1.7988   -3.6128   -0.2310 C.ar    1  UNL11       0.1234
     21 F          -1.9722   -4.9015    0.2002 F       1  UNL11      -0.2055
     22 C          -2.6943   -2.6504    0.1841 C.ar    1  UNL11      -0.0261
     23 C          -2.5325   -1.3286   -0.2467 C.ar    1  UNL11      -0.0544
     24 H          -0.7266    1.5027    2.0643 H       1  UNL11       0.0424
     25 H          -1.2237    2.9286    1.1333 H       1  UNL11       0.0424
     26 H          -4.9311    1.8803   -1.2314 H       1  UNL11       0.4829
     27 H          -4.8479   -2.4776    0.2813 H       1  UNL11       0.0627
     28 H          -3.2733   -3.7991    1.6365 H       1  UNL11       0.0618
     29 H          -1.2139   -2.7884    2.4903 H       1  UNL11       0.0618
     30 H          -0.7652   -0.4043    1.9470 H       1  UNL11       0.0624
     31 H           0.7845    0.9305   -1.7628 H       1  UNL11       0.1490
     32 H          -2.1855    1.0555   -1.1250 H       1  UNL11       0.0512
     33 H          -1.4510    0.4949   -2.6449 H       1  UNL11       0.0512
     34 H           0.2323   -1.7383   -2.1343 H       1  UNL11       0.0622
     35 H          -0.0635   -4.0066   -1.3848 H       1  UNL11       0.0646
     36 H          -3.5210   -2.8968    0.8365 H       1  UNL11       0.0646
     37 H          -3.2541   -0.5706    0.0912 H       1  UNL11       0.0622
@<TRIPOS>BOND
     1     1     2    2
     2     2     3    1
     3     2    15   am
     4     3     4    1
     5     3    24    1
     6     3    25    1
     7     4     5    2
     8     5     6    1
     9     6     7   am
    10     6    26    1
    11     7     8    2
    12     7     9    1
    13     9    10   ar
    14    10    11   ar
    15    10    27    1
    16    11    12   ar
    17    11    28    1
    18    12    13   ar
    19    12    29    1
    20    13    14   ar
    21    13    30    1
    22    14     4    1
    23    14     9   ar
    24    15    16    1
    25    15    31    1
    26    16    17    1
    27    16    32    1
    28    16    33    1
    29    17    18   ar
    30    18    19   ar
    31    18    34    1
    32    19    20   ar
    33    19    35    1
    34    20    21    1
    35    20    22   ar
    36    22    23   ar
    37    22    36    1
    38    23    17   ar
    39    23    37    1
@<TRIPOS>MOLECULE
*****
 37 39 0 0 0
SMALL
GASTEIGER

@<TRIPOS>ATOM
      1 O           0.6046    2.7476   -0.4133 O.2     1  UNL11      -0.2754
      2 C           0.0974    1.6852    0.0714 C.2     1  UNL11       0.2193
      3 C          -1.0135    1.8440    1.0476 C.3     1  UNL11       0.0725
      4 C          -2.2447    1.1817    0.5584 C.2     1  UNL11       0.1237
      5 N          -3.1291    1.8705   -0.1847 N.2     1  UNL11      -0.0071
      6 N          -4.2416    1.3303   -0.6475 N.am    1  UNL11      -0.0356
      7 C          -4.5819    0.0468   -0.4140 C.2     1  UNL11       0.4383
      8 O          -5.6303   -0.4552   -0.8526 O.2     1  UNL11      -0.2116
      9 C          -3.6983   -0.7082    0.3509 C.ar    1  UNL11       0.1004
     10 C          -3.9575   -2.0230    0.6429 C.ar    1  UNL11      -0.0441
     11 C          -3.0652   -2.7546    1.4060 C.ar    1  UNL11      -0.0608
     12 C          -1.8931   -2.1918    1.8959 C.ar    1  UNL11      -0.0611
     13 C          -1.6669   -0.8679    1.5815 C.ar    1  UNL11      -0.0518
     14 C          -2.5379   -0.1396    0.8319 C.ar    1  UNL11       0.0194
     15 N           0.5777    0.4234   -0.3102 N.am    1  UNL11      -0.3109
     16 C           0.0093   -0.8045    0.2141 C.3     1  UNL11       0.0368
     17 C          -1.0972   -1.3227   -0.6085 C.ar    1  UNL11      -0.0302
     18 C          -0.8877   -1.6699   -1.9139 C.ar    1  UNL11      -0.0544
     19 C          -1.9450   -2.1528   -2.6784 C.ar    1  UNL11      -0.0261
     20 C          -3.1993   -2.2916   -2.1578 C.ar    1  UNL11       0.1234
     21 F          -4.2515   -2.7653   -2.8963 F       1  UNL11      -0.2055
     22 C          -3.4185   -1.9435   -0.8421 C.ar    1  UNL11      -0.0261
     23 C          -2.3551   -1.4577   -0.0727 C.ar    1  UNL11      -0.0544
     24 H          -0.7266    1.5027    2.0643 H       1  UNL11       0.0424
     25 H          -1.2237    2.9286    1.1333 H       1  UNL11       0.0424
     26 H          -4.9311    1.8803   -1.2314 H       1  UNL11       0.4829
     27 H          -4.8479   -2.4776    0.2813 H       1  UNL11       0.0627
     28 H          -3.2733   -3.7991    1.6365 H       1  UNL11       0.0618
     29 H          -1.2139   -2.7884    2.4903 H       1  UNL11       0.0618
     30 H          -0.7652   -0.4043    1.9470 H       1  UNL11       0.0624
     31 H           1.3805    0.4164   -1.0010 H       1  UNL11       0.1490
     32 H           0.8208   -1.5820    0.3189 H       1  UNL11       0.0512
     33 H          -0.3302   -0.6192    1.2740 H       1  UNL11       0.0512
     34 H           0.0738   -1.5951   -2.4086 H       1  UNL11       0.0622
     35 H          -1.7678   -2.4266   -3.7168 H       1  UNL11       0.0646
     36 H          -4.3973   -2.0380   -0.3919 H       1  UNL11       0.0646
     37 H          -2.5433   -1.1831    0.9754 H       1  UNL11       0.0622
@<TRIPOS>BOND
     1     1     2    2
     2     2     3    1
     3     2    15   am
     4     3     4    1
     5     3    24    1
     6     3    25    1
     7     4     5    2
     8     5     6    1
     9     6     7   am
    10     6    26    1
    11     7     8    2
    12     7     9    1
    13     9    10   ar
    14    10    11   ar
    15    10    27    1
    16    11    12   ar
    17    11    28    1
    18    12    13   ar
    19    12    29    1
    20    13    14   ar
    21    13    30    1
    22    14     4    1
    23    14     9   ar
    24    15    16    1
    25    15    31    1
    26    16    17    1
    27    16    32    1
    28    16    33    1
    29    17    18   ar
    30    18    19   ar
    31    18    34    1
    32    19    20   ar
    33    19    35    1
    34    20    21    1
    35    20    22   ar
    36    22    23   ar
    37    22    36    1
    38    23    17   ar
    39    23    37    1
@<TRIPOS>MOLECULE
*****
 37 39 0 0 0
SMALL
GASTEIGER

@<TRIPOS>ATOM
      1 O           1.1462    1.0858    0.4733 O.2     1  UNL11      -0.2754
      2 C           0.0974    1.6852    0.0714 C.2     1  UNL11       0.2193
      3 C          -1.0135    1.8440    1.0476 C.3     1  UNL11       0.0725
      4 C          -2.2447    1.1817    0.5584 C.2     1  UNL11       0.1237
      5 N          -2.4854   -0.1045    0.8691 N.2     1  UNL11      -0.0071
      6 N          -3.5664   -0.7438    0.4611 N.am    1  UNL11      -0.0356
      7 C          -4.5157   -0.1614   -0.2986 C.2     1  UNL11       0.4383
      8 O          -5.5305   -0.7689   -0.6791 O.2     1  UNL11      -0.2116
      9 C          -4.3122    1.1701   -0.6471 C.ar    1  UNL11       0.1004
     10 C          -5.2213    1.8486   -1.4181 C.ar    1  UNL11      -0.0441
     11 C          -4.9980    3.1721   -1.7531 C.ar    1  UNL11      -0.0608
     12 C          -3.8626    3.8501   -1.3270 C.ar    1  UNL11      -0.0611
     13 C          -2.9719    3.1351   -0.5538 C.ar    1  UNL11      -0.0518
     14 C          -3.1819    1.8334   -0.2185 C.ar    1  UNL11       0.0194
     15 N           0.0087    2.1708   -1.2419 N.am    1  UNL11      -0.3109
     16 C          -1.1677    2.8708   -1.7232 C.3     1  UNL11       0.0368
     17 C          -0.8758    4.2418   -2.1755 C.ar    1  UNL11      -0.0302
     18 C           0.3506    4.5559   -2.6911 C.ar    1  UNL11      -0.0544
     19 C           0.6115    5.8572   -3.1087 C.ar    1  UNL11      -0.0261
     20 C          -0.3312    6.8403   -3.0179 C.ar    1  UNL11       0.1234
     21 F          -0.0911    8.1263   -3.4244 F       1  UNL11      -0.2055
     22 C          -1.5704    6.5312   -2.4991 C.ar    1  UNL11      -0.0261
     23 C          -1.8333    5.2223   -2.0788 C.ar    1  UNL11      -0.0544
     24 H          -0.7266    1.5027    2.0643 H       1  UNL11       0.0424
     25 H          -1.2237    2.9286    1.1333 H       1  UNL11       0.0424
     26 H          -3.7469   -1.7557    0.7109 H       1  UNL11       0.4829
     27 H          -6.0980    1.3528   -1.7583 H       1  UNL11       0.0627
     28 H          -5.7219    3.7090   -2.3657 H       1  UNL11       0.0618
     29 H          -3.7146    4.8852   -1.6048 H       1  UNL11       0.0618
     30 H          -2.0820    3.6351   -0.2077 H       1  UNL11       0.0624
     31 H           0.8478    1.9960   -1.8642 H       1  UNL11       0.1490
     32 H          -1.6486    2.2756   -2.5529 H       1  UNL11       0.0512
     33 H          -1.9436    2.8742   -0.9042 H       1  UNL11       0.0512
     34 H           1.1568    3.8401   -2.8024 H       1  UNL11       0.0622
     35 H           1.5912    6.0971   -3.5179 H       1  UNL11       0.0646
     36 H          -2.3446    7.2811   -2.4097 H       1  UNL11       0.0646
     37 H          -2.8257    4.9890   -1.6663 H       1  UNL11       0.0622
@<TRIPOS>BOND
     1     1     2    2
     2     2     3    1
     3     2    15   am
     4     3     4    1
     5     3    24    1
     6     3    25    1
     7     4     5    2
     8     5     6    1
     9     6     7   am
    10     6    26    1
    11     7     8    2
    12     7     9    1
    13     9    10   ar
    14    10    11   ar
    15    10    27    1
    16    11    12   ar
    17    11    28    1
    18    12    13   ar
    19    12    29    1
    20    13    14   ar
    21    13    30    1
    22    14     4    1
    23    14     9   ar
    24    15    16    1
    25    15    31    1
    26    16    17    1
    27    16    32    1
    28    16    33    1
    29    17    18   ar
    30    18    19   ar
    31    18    34    1
    32    19    20   ar
    33    19    35    1
    34    20    21    1
    35    20    22   ar
    36    22    23   ar
    37    22    36    1
    38    23    17   ar
    39    23    37    1
@<TRIPOS>MOLECULE
*****
 37 39 0 0 0
SMALL
GASTEIGER

@<TRIPOS>ATOM
      1 O           1.2214    2.1986    0.3778 O.2     1  UNL11      -0.2754
      2 C           0.0974    1.6852    0.0714 C.2     1  UNL11       0.2193
      3 C          -1.0135    1.8440    1.0476 C.3     1  UNL11       0.0725
      4 C          -2.2447    1.1817    0.5584 C.2     1  UNL11       0.1237
      5 N          -2.1563    0.1042   -0.2416 N.2     1  UNL11      -0.0071
      6 N          -3.2202   -0.5254   -0.7057 N.am    1  UNL11      -0.0356
      7 C          -4.4797   -0.1412   -0.4165 C.2     1  UNL11       0.4383
      8 O          -5.4764   -0.7383   -0.8566 O.2     1  UNL11      -0.2116
      9 C          -4.6238    0.9698    0.4085 C.ar    1  UNL11       0.1004
     10 C          -5.8649    1.4374    0.7584 C.ar    1  UNL11      -0.0441
     11 C          -5.9845    2.5445    1.5793 C.ar    1  UNL11      -0.0608
     12 C          -4.8690    3.2112    2.0707 C.ar    1  UNL11      -0.0611
     13 C          -3.6386    2.7118    1.6973 C.ar    1  UNL11      -0.0518
     14 C          -3.5099    1.6239    0.8906 C.ar    1  UNL11       0.0194
     15 N          -0.0706    1.0008   -1.1418 N.am    1  UNL11      -0.3109
     16 C          -1.3435    0.4187   -1.5244 C.3     1  UNL11       0.0368
     17 C          -1.4955   -0.9761   -1.0761 C.ar    1  UNL11      -0.0302
     18 C          -0.4965   -1.5926   -0.3759 C.ar    1  UNL11      -0.0544
     19 C          -0.6541   -2.9123    0.0354 C.ar    1  UNL11      -0.0261
     20 C          -1.7894   -3.6176   -0.2427 C.ar    1  UNL11       0.1234
     21 F          -1.9610   -4.9173    0.1546 F       1  UNL11      -0.2055
     22 C          -2.8014   -3.0026   -0.9484 C.ar    1  UNL11      -0.0261
     23 C          -2.6432   -1.6750   -1.3624 C.ar    1  UNL11      -0.0544
     24 H          -0.7266    1.5027    2.0643 H       1  UNL11       0.0424
     25 H          -1.2237    2.9286    1.1333 H       1  UNL11       0.0424
     26 H          -3.1405   -1.3724   -1.3343 H       1  UNL11       0.4829
     27 H          -6.7349    0.9463    0.3951 H       1  UNL11       0.0627
     28 H          -6.9716    2.9140    1.8560 H       1  UNL11       0.0618
     29 H          -4.9933    4.0746    2.7107 H       1  UNL11       0.0618
     30 H          -2.7548    3.2080    2.0639 H       1  UNL11       0.0624
     31 H           0.7845    0.9305   -1.7628 H       1  UNL11       0.1490
     32 H          -2.1855    1.0555   -1.1250 H       1  UNL11       0.0512
     33 H          -1.4510    0.4949   -2.6449 H       1  UNL11       0.0512
     34 H           0.4365   -1.1097   -0.1091 H       1  UNL11       0.0622
     35 H           0.1472   -3.3942    0.5925 H       1  UNL11       0.0646
     36 H          -3.7164   -3.5265   -1.1895 H       1  UNL11       0.0646
     37 H          -3.4577   -1.1963   -1.9251 H       1  UNL11       0.0622
@<TRIPOS>BOND
     1     1     2    2
     2     2     3    1
     3     2    15   am
     4     3     4    1
     5     3    24    1
     6     3    25    1
     7     4     5    2
     8     5     6    1
     9     6     7   am
    10     6    26    1
    11     7     8    2
    12     7     9    1
    13     9    10   ar
    14    10    11   ar
    15    10    27    1
    16    11    12   ar
    17    11    28    1
    18    12    13   ar
    19    12    29    1
    20    13    14   ar
    21    13    30    1
    22    14     4    1
    23    14     9   ar
    24    15    16    1
    25    15    31    1
    26    16    17    1
    27    16    32    1
    28    16    33    1
    29    17    18   ar
    30    18    19   ar
    31    18    34    1
    32    19    20   ar
    33    19    35    1
    34    20    21    1
    35    20    22   ar
    36    22    23   ar
    37    22    36    1
    38    23    17   ar
    39    23    37    1
@<TRIPOS>MOLECULE
*****
 37 39 0 0 0
SMALL
GASTEIGER

@<TRIPOS>ATOM
      1 O           0.4527    0.4979   -0.2203 O.2     1  UNL11      -0.2754
      2 C           0.0974    1.6852    0.0714 C.2     1  UNL11       0.2193
      3 C          -1.0135    1.8440    1.0476 C.3     1  UNL11       0.0725
      4 C          -2.2447    1.1817    0.5584 C.2     1  UNL11       0.1237
      5 N          -2.8059    0.1916    1.2750 N.2     1  UNL11      -0.0071
      6 N          -3.9031   -0.4324    0.8871 N.am    1  UNL11      -0.0356
      7 C          -4.5498   -0.1292   -0.2563 C.2     1  UNL11       0.4383
      8 O          -5.5819   -0.7204   -0.6153 O.2     1  UNL11      -0.2116
      9 C          -4.0077    0.8895   -1.0335 C.ar    1  UNL11       0.1004
     10 C          -4.5933    1.2693   -2.2142 C.ar    1  UNL11      -0.0441
     11 C          -4.0364    2.2843   -2.9714 C.ar    1  UNL11      -0.0608
     12 C          -2.8821    2.9446   -2.5687 C.ar    1  UNL11      -0.0611
     13 C          -2.3222    2.5351   -1.3765 C.ar    1  UNL11      -0.0518
     14 C          -2.8618    1.5382   -0.6243 C.ar    1  UNL11       0.0194
     15 N           0.7380    2.7885   -0.5125 N.am    1  UNL11      -0.3109
     16 C           0.3647    4.1525   -0.1879 C.3     1  UNL11       0.0368
     17 C          -1.0458    4.4501   -0.4907 C.ar    1  UNL11      -0.0302
     18 C          -1.5238    4.3215   -1.7648 C.ar    1  UNL11      -0.0544
     19 C          -2.8574    4.6118   -2.0347 C.ar    1  UNL11      -0.0261
     20 C          -3.7121    5.0258   -1.0541 C.ar    1  UNL11       0.1234
     21 F          -5.0278    5.3157   -1.3024 F       1  UNL11      -0.2055
     22 C          -3.2374    5.1578    0.2334 C.ar    1  UNL11      -0.0261
     23 C          -1.8958    4.8659    0.5053 C.ar    1  UNL11      -0.0544
     24 H          -0.7266    1.5027    2.0643 H       1  UNL11       0.0424
     25 H          -1.2237    2.9286    1.1333 H       1  UNL11       0.0424
     26 H          -4.3372   -1.2101    1.4578 H       1  UNL11       0.4829
     27 H          -5.4766    0.7796   -2.5459 H       1  UNL11       0.0627
     28 H          -4.5037    2.5844   -3.9090 H       1  UNL11       0.0618
     29 H          -2.4692    3.7346   -3.1817 H       1  UNL11       0.0618
     30 H          -1.4264    3.0297   -1.0378 H       1  UNL11       0.0624
     31 H           1.5084    2.5705   -1.2059 H       1  UNL11       0.1490
     32 H           0.5861    4.3563    0.9000 H       1  UNL11       0.0512
     33 H           1.0518    4.8547   -0.7427 H       1  UNL11       0.0512
     34 H          -0.9187    3.9974   -2.6037 H       1  UNL11       0.0622
     35 H          -3.2283    4.5061   -3.0526 H       1  UNL11       0.0646
     36 H          -3.8817    5.4835    1.0387 H       1  UNL11       0.0646
     37 H          -1.5295    4.9759    1.5364 H       1  UNL11       0.0622
@<TRIPOS>BOND
     1     1     2    2
     2     2     3    1
     3     2    15   am
     4     3     4    1
     5     3    24    1
     6     3    25    1
     7     4     5    2
     8     5     6    1
     9     6     7   am
    10     6    26    1
    11     7     8    2
    12     7     9    1
    13     9    10   ar
    14    10    11   ar
    15    10    27    1
    16    11    12   ar
    17    11    28    1
    18    12    13   ar
    19    12    29    1
    20    13    14   ar
    21    13    30    1
    22    14     4    1
    23    14     9   ar
    24    15    16    1
    25    15    31    1
    26    16    17    1
    27    16    32    1
    28    16    33    1
    29    17    18   ar
    30    18    19   ar
    31    18    34    1
    32    19    20   ar
    33    19    35    1
    34    20    21    1
    35    20    22   ar
    36    22    23   ar
    37    22    36    1
    38    23    17   ar
    39    23    37    1
@<TRIPOS>MOLECULE
*****
 37 39 0 0 0
SMALL
GASTEIGER

@<TRIPOS>ATOM
      1 O           1.1462    1.0858    0.4733 O.2     1  UNL11      -0.2754
      2 C           0.0974    1.6852    0.0714 C.2     1  UNL11       0.2193
      3 C          -1.0135    1.8440    1.0476 C.3     1  UNL11       0.0725
      4 C          -2.2447    1.1817    0.5584 C.2     1  UNL11       0.1237
      5 N          -2.2482   -0.1426    0.3237 N.2     1  UNL11      -0.0071
      6 N          -3.3170   -0.7842   -0.1117 N.am    1  UNL11      -0.0356
      7 C          -4.4901   -0.1665   -0.3562 C.2     1  UNL11       0.4383
      8 O          -5.4920   -0.7764   -0.7658 O.2     1  UNL11      -0.2116
      9 C          -4.5371    1.2053   -0.1285 C.ar    1  UNL11       0.1004
     10 C          -5.6855    1.9220   -0.3491 C.ar    1  UNL11      -0.0441
     11 C          -5.7094    3.2856   -0.1166 C.ar    1  UNL11      -0.0608
     12 C          -4.5881    3.9664    0.3414 C.ar    1  UNL11      -0.0611
     13 C          -3.4525    3.2121    0.5516 C.ar    1  UNL11      -0.0518
     14 C          -3.4185    1.8709    0.3262 C.ar    1  UNL11       0.0194
     15 N           0.0087    2.1708   -1.2419 N.am    1  UNL11      -0.3109
     16 C          -1.1677    2.8708   -1.7232 C.3     1  UNL11       0.0368
     17 C          -1.0920    4.3279   -1.5218 C.ar    1  UNL11      -0.0302
     18 C          -2.0243    4.9719   -0.7572 C.ar    1  UNL11      -0.0544
     19 C          -1.9413    6.3495   -0.5815 C.ar    1  UNL11      -0.0261
     20 C          -0.9454    7.0853   -1.1563 C.ar    1  UNL11       0.1234
     21 F          -0.8488    8.4421   -0.9937 F       1  UNL11      -0.2055
     22 C          -0.0014    6.4430   -1.9288 C.ar    1  UNL11      -0.0261
     23 C          -0.0846    5.0571   -2.1058 C.ar    1  UNL11      -0.0544
     24 H          -0.7266    1.5027    2.0643 H       1  UNL11       0.0424
     25 H          -1.2237    2.9286    1.1333 H       1  UNL11       0.0424
     26 H          -3.3100   -1.8263   -0.2932 H       1  UNL11       0.4829
     27 H          -6.5574    1.4257   -0.7006 H       1  UNL11       0.0627
     28 H          -6.6230    3.8528   -0.2925 H       1  UNL11       0.0618
     29 H          -4.6362    5.0333    0.5142 H       1  UNL11       0.0618
     30 H          -2.5670    3.7129    0.9078 H       1  UNL11       0.0624
     31 H           0.8478    1.9960   -1.8642 H       1  UNL11       0.1490
     32 H          -1.3301    2.6312   -2.8142 H       1  UNL11       0.0512
     33 H          -2.0762    2.4407   -1.2108 H       1  UNL11       0.0512
     34 H          -2.8467    4.4687   -0.2619 H       1  UNL11       0.0622
     35 H          -2.6885    6.8529    0.0293 H       1  UNL11       0.0646
     36 H           0.8031    6.9894   -2.4019 H       1  UNL11       0.0646
     37 H           0.6743    4.5569   -2.7248 H       1  UNL11       0.0622
@<TRIPOS>BOND
     1     1     2    2
     2     2     3    1
     3     2    15   am
     4     3     4    1
     5     3    24    1
     6     3    25    1
     7     4     5    2
     8     5     6    1
     9     6     7   am
    10     6    26    1
    11     7     8    2
    12     7     9    1
    13     9    10   ar
    14    10    11   ar
    15    10    27    1
    16    11    12   ar
    17    11    28    1
    18    12    13   ar
    19    12    29    1
    20    13    14   ar
    21    13    30    1
    22    14     4    1
    23    14     9   ar
    24    15    16    1
    25    15    31    1
    26    16    17    1
    27    16    32    1
    28    16    33    1
    29    17    18   ar
    30    18    19   ar
    31    18    34    1
    32    19    20   ar
    33    19    35    1
    34    20    21    1
    35    20    22   ar
    36    22    23   ar
    37    22    36    1
    38    23    17   ar
    39    23    37    1
@<TRIPOS>MOLECULE
*****
 37 39 0 0 0
SMALL
GASTEIGER

@<TRIPOS>ATOM
      1 O           1.2818    1.6451    0.5366 O.2     1  UNL11      -0.2754
      2 C           0.0974    1.6852    0.0714 C.2     1  UNL11       0.2193
      3 C          -1.0135    1.8440    1.0476 C.3     1  UNL11       0.0725
      4 C          -2.2447    1.1817    0.5584 C.2     1  UNL11       0.1237
      5 N          -2.8059    0.1916    1.2750 N.2     1  UNL11      -0.0071
      6 N          -3.9031   -0.4324    0.8871 N.am    1  UNL11      -0.0356
      7 C          -4.5498   -0.1292   -0.2563 C.2     1  UNL11       0.4383
      8 O          -5.5819   -0.7204   -0.6153 O.2     1  UNL11      -0.2116
      9 C          -4.0077    0.8895   -1.0335 C.ar    1  UNL11       0.1004
     10 C          -4.5933    1.2693   -2.2142 C.ar    1  UNL11      -0.0441
     11 C          -4.0364    2.2843   -2.9714 C.ar    1  UNL11      -0.0608
     12 C          -2.8821    2.9446   -2.5687 C.ar    1  UNL11      -0.0611
     13 C          -2.3222    2.5351   -1.3765 C.ar    1  UNL11      -0.0518
     14 C          -2.8618    1.5382   -0.6243 C.ar    1  UNL11       0.0194
     15 N          -0.1339    1.5828   -1.3086 N.am    1  UNL11      -0.3109
     16 C           0.9516    1.4283   -2.2590 C.3     1  UNL11       0.0368
     17 C           1.0127    2.5214   -3.2445 C.ar    1  UNL11      -0.0302
     18 C           1.2051    3.8121   -2.8378 C.ar    1  UNL11      -0.0544
     19 C           1.2549    4.8334   -3.7813 C.ar    1  UNL11      -0.0261
     20 C           1.1160    4.5818   -5.1158 C.ar    1  UNL11       0.1234
     21 F           1.1625    5.5752   -6.0581 F       1  UNL11      -0.2055
     22 C           0.9217    3.2826   -5.5337 C.ar    1  UNL11      -0.0261
     23 C           0.8715    2.2549   -4.5849 C.ar    1  UNL11      -0.0544
     24 H          -0.7266    1.5027    2.0643 H       1  UNL11       0.0424
     25 H          -1.2237    2.9286    1.1333 H       1  UNL11       0.0424
     26 H          -4.3372   -1.2101    1.4578 H       1  UNL11       0.4829
     27 H          -5.4766    0.7796   -2.5459 H       1  UNL11       0.0627
     28 H          -4.5037    2.5844   -3.9090 H       1  UNL11       0.0618
     29 H          -2.4692    3.7346   -3.1817 H       1  UNL11       0.0618
     30 H          -1.4264    3.0297   -1.0378 H       1  UNL11       0.0624
     31 H          -1.1456    1.6268   -1.6191 H       1  UNL11       0.1490
     32 H           1.9306    1.3425   -1.7039 H       1  UNL11       0.0512
     33 H           0.8401    0.4299   -2.7724 H       1  UNL11       0.0512
     34 H           1.3272    4.1035   -1.8010 H       1  UNL11       0.0622
     35 H           1.4086    5.8578   -3.4473 H       1  UNL11       0.0646
     36 H           0.8067    3.0412   -6.5817 H       1  UNL11       0.0646
     37 H           0.7154    1.2229   -4.9313 H       1  UNL11       0.0622
@<TRIPOS>BOND
     1     1     2    2
     2     2     3    1
     3     2    15   am
     4     3     4    1
     5     3    24    1
     6     3    25    1
     7     4     5    2
     8     5     6    1
     9     6     7   am
    10     6    26    1
    11     7     8    2
    12     7     9    1
    13     9    10   ar
    14    10    11   ar
    15    10    27    1
    16    11    12   ar
    17    11    28    1
    18    12    13   ar
    19    12    29    1
    20    13    14   ar
    21    13    30    1
    22    14     4    1
    23    14     9   ar
    24    15    16    1
    25    15    31    1
    26    16    17    1
    27    16    32    1
    28    16    33    1
    29    17    18   ar
    30    18    19   ar
    31    18    34    1
    32    19    20   ar
    33    19    35    1
    34    20    21    1
    35    20    22   ar
    36    22    23   ar
    37    22    36    1
    38    23    17   ar
    39    23    37    1
@<TRIPOS>MOLECULE
*****
 37 39 0 0 0
SMALL
GASTEIGER

@<TRIPOS>ATOM
      1 O           0.2248    2.5859   -0.8193 O.2     1  UNL11      -0.2754
      2 C           0.0974    1.6852    0.0714 C.2     1  UNL11       0.2193
      3 C          -1.0135    1.8440    1.0476 C.3     1  UNL11       0.0725
      4 C          -2.2447    1.1817    0.5584 C.2     1  UNL11       0.1237
      5 N          -3.1259    0.6682    1.4351 N.2     1  UNL11      -0.0071
      6 N          -4.2392    0.0684    1.0548 N.am    1  UNL11      -0.0356
      7 C          -4.5836   -0.0782   -0.2404 C.2     1  UNL11       0.4383
      8 O          -5.6328   -0.6436   -0.5912 O.2     1  UNL11      -0.2116
      9 C          -3.7034    0.4370   -1.1867 C.ar    1  UNL11       0.1004
     10 C          -3.9661    0.3359   -2.5291 C.ar    1  UNL11      -0.0441
     11 C          -3.0763    0.8547   -3.4525 C.ar    1  UNL11      -0.0608
     12 C          -1.9033    1.4868   -3.0587 C.ar    1  UNL11      -0.0611
     13 C          -1.6737    1.5693   -1.7011 C.ar    1  UNL11      -0.0518
     14 C          -2.5422    1.0625   -0.7847 C.ar    1  UNL11       0.0194
     15 N           0.9771    0.5931    0.1167 N.am    1  UNL11      -0.3109
     16 C           0.8471   -0.4559    1.1107 C.3     1  UNL11       0.0368
     17 C           1.3136   -1.7668    0.6274 C.ar    1  UNL11      -0.0302
     18 C           1.8061   -1.9036   -0.6403 C.ar    1  UNL11      -0.0544
     19 C           2.2377   -3.1500   -1.0828 C.ar    1  UNL11      -0.0261
     20 C           2.1833   -4.2525   -0.2797 C.ar    1  UNL11       0.1234
     21 F           2.6039   -5.4869   -0.6993 F       1  UNL11      -0.2055
     22 C           1.6879   -4.1225    1.0001 C.ar    1  UNL11      -0.0261
     23 C           1.2536   -2.8688    1.4457 C.ar    1  UNL11      -0.0544
     24 H          -0.7266    1.5027    2.0643 H       1  UNL11       0.0424
     25 H          -1.2237    2.9286    1.1333 H       1  UNL11       0.0424
     26 H          -4.9264   -0.3323    1.7521 H       1  UNL11       0.4829
     27 H          -4.8561   -0.1440   -2.8573 H       1  UNL11       0.0627
     28 H          -3.2873    0.7733   -4.5185 H       1  UNL11       0.0618
     29 H          -1.2259    1.8829   -3.8035 H       1  UNL11       0.0618
     30 H          -0.7720    2.0551   -1.3654 H       1  UNL11       0.0624
     31 H           1.7436    0.5778   -0.6141 H       1  UNL11       0.1490
     32 H           1.4031   -0.1600    2.0474 H       1  UNL11       0.0512
     33 H          -0.2313   -0.5087    1.4382 H       1  UNL11       0.0512
     34 H           1.8883   -1.0839   -1.3447 H       1  UNL11       0.0622
     35 H           2.6283   -3.2485   -2.0940 H       1  UNL11       0.0646
     36 H           1.6274   -4.9712    1.6677 H       1  UNL11       0.0646
     37 H           0.8600   -2.7786    2.4686 H       1  UNL11       0.0622
@<TRIPOS>BOND
     1     1     2    2
     2     2     3    1
     3     2    15   am
     4     3     4    1
     5     3    24    1
     6     3    25    1
     7     4     5    2
     8     5     6    1
     9     6     7   am
    10     6    26    1
    11     7     8    2
    12     7     9    1
    13     9    10   ar
    14    10    11   ar
    15    10    27    1
    16    11    12   ar
    17    11    28    1
    18    12    13   ar
    19    12    29    1
    20    13    14   ar
    21    13    30    1
    22    14     4    1
    23    14     9   ar
    24    15    16    1
    25    15    31    1
    26    16    17    1
    27    16    32    1
    28    16    33    1
    29    17    18   ar
    30    18    19   ar
    31    18    34    1
    32    19    20   ar
    33    19    35    1
    34    20    21    1
    35    20    22   ar
    36    22    23   ar
    37    22    36    1
    38    23    17   ar
    39    23    37    1
@<TRIPOS>MOLECULE
*****
 37 39 0 0 0
SMALL
GASTEIGER

@<TRIPOS>ATOM
      1 O           0.4527    0.4979   -0.2203 O.2     1  UNL11      -0.2754
      2 C           0.0974    1.6852    0.0714 C.2     1  UNL11       0.2193
      3 C          -1.0135    1.8440    1.0476 C.3     1  UNL11       0.0725
      4 C          -2.2447    1.1817    0.5584 C.2     1  UNL11       0.1237
      5 N          -2.8059    0.1916    1.2750 N.2     1  UNL11      -0.0071
      6 N          -3.9031   -0.4324    0.8871 N.am    1  UNL11      -0.0356
      7 C          -4.5498   -0.1292   -0.2563 C.2     1  UNL11       0.4383
      8 O          -5.5819   -0.7204   -0.6153 O.2     1  UNL11      -0.2116
      9 C          -4.0077    0.8895   -1.0335 C.ar    1  UNL11       0.1004
     10 C          -4.5933    1.2693   -2.2142 C.ar    1  UNL11      -0.0441
     11 C          -4.0364    2.2843   -2.9714 C.ar    1  UNL11      -0.0608
     12 C          -2.8821    2.9446   -2.5687 C.ar    1  UNL11      -0.0611
     13 C          -2.3222    2.5351   -1.3765 C.ar    1  UNL11      -0.0518
     14 C          -2.8618    1.5382   -0.6243 C.ar    1  UNL11       0.0194
     15 N           0.7380    2.7885   -0.5125 N.am    1  UNL11      -0.3109
     16 C           1.8218    2.6309   -1.4644 C.3     1  UNL11       0.0368
     17 C           1.4212    1.8930   -2.6746 C.ar    1  UNL11      -0.0302
     18 C           0.1413    1.4344   -2.8157 C.ar    1  UNL11      -0.0544
     19 C          -0.2190    0.7345   -3.9628 C.ar    1  UNL11      -0.0261
     20 C           0.6775    0.4896   -4.9627 C.ar    1  UNL11       0.1234
     21 F           0.3395   -0.1976   -6.0986 F       1  UNL11      -0.2055
     22 C           1.9702    0.9491   -4.8277 C.ar    1  UNL11      -0.0261
     23 C           2.3331    1.6531   -3.6739 C.ar    1  UNL11      -0.0544
     24 H          -0.7266    1.5027    2.0643 H       1  UNL11       0.0424
     25 H          -1.2237    2.9286    1.1333 H       1  UNL11       0.0424
     26 H          -4.3372   -1.2101    1.4578 H       1  UNL11       0.4829
     27 H          -5.4766    0.7796   -2.5459 H       1  UNL11       0.0627
     28 H          -4.5037    2.5844   -3.9090 H       1  UNL11       0.0618
     29 H          -2.4692    3.7346   -3.1817 H       1  UNL11       0.0618
     30 H          -1.4264    3.0297   -1.0378 H       1  UNL11       0.0624
     31 H           0.3880    3.7438   -0.2183 H       1  UNL11       0.1490
     32 H           2.2341    3.6451   -1.7390 H       1  UNL11       0.0512
     33 H           2.6826    2.1171   -0.9467 H       1  UNL11       0.0512
     34 H          -0.6357    1.5844   -2.0751 H       1  UNL11       0.0622
     35 H          -1.2407    0.3736   -4.0656 H       1  UNL11       0.0646
     36 H           2.7108    0.7757   -5.5966 H       1  UNL11       0.0646
     37 H           3.3676    2.0138   -3.5783 H       1  UNL11       0.0622
@<TRIPOS>BOND
     1     1     2    2
     2     2     3    1
     3     2    15   am
     4     3     4    1
     5     3    24    1
     6     3    25    1
     7     4     5    2
     8     5     6    1
     9     6     7   am
    10     6    26    1
    11     7     8    2
    12     7     9    1
    13     9    10   ar
    14    10    11   ar
    15    10    27    1
    16    11    12   ar
    17    11    28    1
    18    12    13   ar
    19    12    29    1
    20    13    14   ar
    21    13    30    1
    22    14     4    1
    23    14     9   ar
    24    15    16    1
    25    15    31    1
    26    16    17    1
    27    16    32    1
    28    16    33    1
    29    17    18   ar
    30    18    19   ar
    31    18    34    1
    32    19    20   ar
    33    19    35    1
    34    20    21    1
    35    20    22   ar
    36    22    23   ar
    37    22    36    1
    38    23    17   ar
    39    23    37    1
@<TRIPOS>MOLECULE
*****
 37 39 0 0 0
SMALL
GASTEIGER

@<TRIPOS>ATOM
      1 O           1.1462    1.0858    0.4733 O.2     1  UNL11      -0.2754
      2 C           0.0974    1.6852    0.0714 C.2     1  UNL11       0.2193
      3 C          -1.0135    1.8440    1.0476 C.3     1  UNL11       0.0725
      4 C          -2.2447    1.1817    0.5584 C.2     1  UNL11       0.1237
      5 N          -2.2482   -0.1426    0.3237 N.2     1  UNL11      -0.0071
      6 N          -3.3170   -0.7842   -0.1117 N.am    1  UNL11      -0.0356
      7 C          -4.4901   -0.1665   -0.3562 C.2     1  UNL11       0.4383
      8 O          -5.4920   -0.7764   -0.7658 O.2     1  UNL11      -0.2116
      9 C          -4.5371    1.2053   -0.1285 C.ar    1  UNL11       0.1004
     10 C          -5.6855    1.9220   -0.3491 C.ar    1  UNL11      -0.0441
     11 C          -5.7094    3.2856   -0.1166 C.ar    1  UNL11      -0.0608
     12 C          -4.5881    3.9664    0.3414 C.ar    1  UNL11      -0.0611
     13 C          -3.4525    3.2121    0.5516 C.ar    1  UNL11      -0.0518
     14 C          -3.4185    1.8709    0.3262 C.ar    1  UNL11       0.0194
     15 N           0.0087    2.1708   -1.2419 N.am    1  UNL11      -0.3109
     16 C          -1.1677    2.8708   -1.7232 C.3     1  UNL11       0.0368
     17 C          -0.8580    3.8694   -2.7607 C.ar    1  UNL11      -0.0302
     18 C          -1.4106    3.7691   -4.0070 C.ar    1  UNL11      -0.0544
     19 C          -1.1033    4.7179   -4.9771 C.ar    1  UNL11      -0.0261
     20 C          -0.2571    5.7574   -4.7184 C.ar    1  UNL11       0.1234
     21 F           0.0561    6.7002   -5.6617 F       1  UNL11      -0.2055
     22 C           0.3040    5.8653   -3.4639 C.ar    1  UNL11      -0.0261
     23 C          -0.0048    4.9110   -2.4877 C.ar    1  UNL11      -0.0544
     24 H          -0.7266    1.5027    2.0643 H       1  UNL11       0.0424
     25 H          -1.2237    2.9286    1.1333 H       1  UNL11       0.0424
     26 H          -3.3100   -1.8263   -0.2932 H       1  UNL11       0.4829
     27 H          -6.5574    1.4257   -0.7006 H       1  UNL11       0.0627
     28 H          -6.6230    3.8528   -0.2925 H       1  UNL11       0.0618
     29 H          -4.6362    5.0333    0.5142 H       1  UNL11       0.0618
     30 H          -2.5670    3.7129    0.9078 H       1  UNL11       0.0624
     31 H           0.8478    1.9960   -1.8642 H       1  UNL11       0.1490
     32 H          -1.9214    2.1235   -2.1073 H       1  UNL11       0.0512
     33 H          -1.6842    3.3522   -0.8432 H       1  UNL11       0.0512
     34 H          -2.0933    2.9798   -4.2998 H       1  UNL11       0.0622
     35 H          -1.5486    4.6292   -5.9663 H       1  UNL11       0.0646
     36 H           0.9796    6.6735   -3.2186 H       1  UNL11       0.0646
     37 H           0.4500    5.0082   -1.4911 H       1  UNL11       0.0622
@<TRIPOS>BOND
     1     1     2    2
     2     2     3    1
     3     2    15   am
     4     3     4    1
     5     3    24    1
     6     3    25    1
     7     4     5    2
     8     5     6    1
     9     6     7   am
    10     6    26    1
    11     7     8    2
    12     7     9    1
    13     9    10   ar
    14    10    11   ar
    15    10    27    1
    16    11    12   ar
    17    11    28    1
    18    12    13   ar
    19    12    29    1
    20    13    14   ar
    21    13    30    1
    22    14     4    1
    23    14     9   ar
    24    15    16    1
    25    15    31    1
    26    16    17    1
    27    16    32    1
    28    16    33    1
    29    17    18   ar
    30    18    19   ar
    31    18    34    1
    32    19    20   ar
    33    19    35    1
    34    20    21    1
    35    20    22   ar
    36    22    23   ar
    37    22    36    1
    38    23    17   ar
    39    23    37    1
@<TRIPOS>MOLECULE
*****
 37 39 0 0 0
SMALL
GASTEIGER

@<TRIPOS>ATOM
      1 O           0.8502    0.6671    0.2045 O.2     1  UNL11      -0.2754
      2 C           0.0974    1.6852    0.0714 C.2     1  UNL11       0.2193
      3 C          -1.0135    1.8440    1.0476 C.3     1  UNL11       0.0725
      4 C          -2.2447    1.1817    0.5584 C.2     1  UNL11       0.1237
      5 N          -3.4512    1.6662    0.9026 N.2     1  UNL11      -0.0071
      6 N          -4.5804    1.1165    0.4946 N.am    1  UNL11      -0.0356
      7 C          -4.6171    0.0270   -0.2986 C.2     1  UNL11       0.4383
      8 O          -5.6832   -0.4851   -0.6788 O.2     1  UNL11      -0.2116
      9 C          -3.3932   -0.5121   -0.6824 C.ar    1  UNL11       0.1004
     10 C          -3.3275   -1.6206   -1.4876 C.ar    1  UNL11      -0.0441
     11 C          -2.0995   -2.1402   -1.8561 C.ar    1  UNL11      -0.0608
     12 C          -0.9080   -1.5664   -1.4301 C.ar    1  UNL11      -0.0611
     13 C          -1.0143   -0.4536   -0.6220 C.ar    1  UNL11      -0.0518
     14 C          -2.2168    0.0654   -0.2539 C.ar    1  UNL11       0.0194
     15 N           0.3201    2.6108   -0.9592 N.am    1  UNL11      -0.3109
     16 C          -0.5120    3.7878   -1.1262 C.3     1  UNL11       0.0368
     17 C          -1.6677    3.5542   -2.0090 C.ar    1  UNL11      -0.0302
     18 C          -2.9417    3.7219   -1.5430 C.ar    1  UNL11      -0.0544
     19 C          -4.0223    3.4918   -2.3886 C.ar    1  UNL11      -0.0261
     20 C          -3.8461    3.0994   -3.6841 C.ar    1  UNL11       0.1234
     21 F          -4.8986    2.8687   -4.5301 F       1  UNL11      -0.2055
     22 C          -2.5642    2.9282   -4.1614 C.ar    1  UNL11      -0.0261
     23 C          -1.4768    3.1595   -3.3111 C.ar    1  UNL11      -0.0544
     24 H          -0.7266    1.5027    2.0643 H       1  UNL11       0.0424
     25 H          -1.2237    2.9286    1.1333 H       1  UNL11       0.0424
     26 H          -5.5248    1.5051    0.7706 H       1  UNL11       0.4829
     27 H          -4.2244   -2.0797   -1.8266 H       1  UNL11       0.0627
     28 H          -2.0499   -3.0208   -2.4960 H       1  UNL11       0.0618
     29 H           0.0378   -1.9949   -1.7342 H       1  UNL11       0.0618
     30 H          -0.1066    0.0138   -0.2766 H       1  UNL11       0.0624
     31 H           1.1285    2.4017   -1.6108 H       1  UNL11       0.1490
     32 H          -0.8554    4.1544   -0.1154 H       1  UNL11       0.0512
     33 H           0.1299    4.6287   -1.5182 H       1  UNL11       0.0512
     34 H          -3.1753    4.0329   -0.5313 H       1  UNL11       0.0622
     35 H          -5.0329    3.6283   -2.0079 H       1  UNL11       0.0646
     36 H          -2.3816    2.6178   -5.1812 H       1  UNL11       0.0646
     37 H          -0.4594    3.0188   -3.7040 H       1  UNL11       0.0622
@<TRIPOS>BOND
     1     1     2    2
     2     2     3    1
     3     2    15   am
     4     3     4    1
     5     3    24    1
     6     3    25    1
     7     4     5    2
     8     5     6    1
     9     6     7   am
    10     6    26    1
    11     7     8    2
    12     7     9    1
    13     9    10   ar
    14    10    11   ar
    15    10    27    1
    16    11    12   ar
    17    11    28    1
    18    12    13   ar
    19    12    29    1
    20    13    14   ar
    21    13    30    1
    22    14     4    1
    23    14     9   ar
    24    15    16    1
    25    15    31    1
    26    16    17    1
    27    16    32    1
    28    16    33    1
    29    17    18   ar
    30    18    19   ar
    31    18    34    1
    32    19    20   ar
    33    19    35    1
    34    20    21    1
    35    20    22   ar
    36    22    23   ar
    37    22    36    1
    38    23    17   ar
    39    23    37    1
@<TRIPOS>MOLECULE
*****
 37 39 0 0 0
SMALL
GASTEIGER

@<TRIPOS>ATOM
      1 O           0.9658    2.6148    0.0193 O.2     1  UNL11      -0.2754
      2 C           0.0974    1.6852    0.0714 C.2     1  UNL11       0.2193
      3 C          -1.0135    1.8440    1.0476 C.3     1  UNL11       0.0725
      4 C          -2.2447    1.1817    0.5584 C.2     1  UNL11       0.1237
      5 N          -2.4747    1.0812   -0.7629 N.2     1  UNL11      -0.0071
      6 N          -3.5543    0.5005   -1.2540 N.am    1  UNL11      -0.0356
      7 C          -4.5125   -0.0382   -0.4736 C.2     1  UNL11       0.4383
      8 O          -5.5258   -0.5831   -0.9424 O.2     1  UNL11      -0.2116
      9 C          -4.3202    0.0407    0.9021 C.ar    1  UNL11       0.1004
     10 C          -5.2398   -0.4777    1.7779 C.ar    1  UNL11      -0.0441
     11 C          -5.0284   -0.3872    3.1420 C.ar    1  UNL11      -0.0608
     12 C          -3.8947    0.2225    3.6649 C.ar    1  UNL11      -0.0611
     13 C          -2.9931    0.7317    2.7536 C.ar    1  UNL11      -0.0518
     14 C          -3.1913    0.6479    1.4102 C.ar    1  UNL11       0.0194
     15 N           0.1981    0.5632   -0.7649 N.am    1  UNL11      -0.3109
     16 C          -0.7846   -0.5041   -0.7382 C.3     1  UNL11       0.0368
     17 C          -1.8937   -0.2882   -1.6831 C.ar    1  UNL11      -0.0302
     18 C          -1.9256    0.8277   -2.4720 C.ar    1  UNL11      -0.0544
     19 C          -2.9833    1.0189   -3.3553 C.ar    1  UNL11      -0.0261
     20 C          -4.0013    0.1154   -3.4588 C.ar    1  UNL11       0.1234
     21 F          -5.0501    0.2880   -4.3231 F       1  UNL11      -0.2055
     22 C          -3.9761   -1.0125   -2.6666 C.ar    1  UNL11      -0.0261
     23 C          -2.9122   -1.2053   -1.7778 C.ar    1  UNL11      -0.0544
     24 H          -0.7266    1.5027    2.0643 H       1  UNL11       0.0424
     25 H          -1.2237    2.9286    1.1333 H       1  UNL11       0.0424
     26 H          -3.7263    0.4262   -2.2951 H       1  UNL11       0.4829
     27 H          -6.1165   -0.9485    1.4041 H       1  UNL11       0.0627
     28 H          -5.7604   -0.8000    3.8357 H       1  UNL11       0.0618
     29 H          -3.7563    0.2787    4.7364 H       1  UNL11       0.0618
     30 H          -2.1034    1.2098    3.1298 H       1  UNL11       0.0624
     31 H           1.0330    0.5370   -1.4160 H       1  UNL11       0.1490
     32 H          -0.2767   -1.4908   -0.9449 H       1  UNL11       0.0512
     33 H          -1.1702   -0.6110    0.3167 H       1  UNL11       0.0512
     34 H          -1.1605    1.5953   -2.4582 H       1  UNL11       0.0622
     35 H          -2.9994    1.9107   -3.9792 H       1  UNL11       0.0646
     36 H          -4.7634   -1.7523   -2.7178 H       1  UNL11       0.0646
     37 H          -2.9043   -2.1089   -1.1510 H       1  UNL11       0.0622
@<TRIPOS>BOND
     1     1     2    2
     2     2     3    1
     3     2    15   am
     4     3     4    1
     5     3    24    1
     6     3    25    1
     7     4     5    2
     8     5     6    1
     9     6     7   am
    10     6    26    1
    11     7     8    2
    12     7     9    1
    13     9    10   ar
    14    10    11   ar
    15    10    27    1
    16    11    12   ar
    17    11    28    1
    18    12    13   ar
    19    12    29    1
    20    13    14   ar
    21    13    30    1
    22    14     4    1
    23    14     9   ar
    24    15    16    1
    25    15    31    1
    26    16    17    1
    27    16    32    1
    28    16    33    1
    29    17    18   ar
    30    18    19   ar
    31    18    34    1
    32    19    20   ar
    33    19    35    1
    34    20    21    1
    35    20    22   ar
    36    22    23   ar
    37    22    36    1
    38    23    17   ar
    39    23    37    1
@<TRIPOS>MOLECULE
*****
 37 39 0 0 0
SMALL
GASTEIGER

@<TRIPOS>ATOM
      1 O           1.2214    2.1986    0.3778 O.2     1  UNL11      -0.2754
      2 C           0.0974    1.6852    0.0714 C.2     1  UNL11       0.2193
      3 C          -1.0135    1.8440    1.0476 C.3     1  UNL11       0.0725
      4 C          -2.2447    1.1817    0.5584 C.2     1  UNL11       0.1237
      5 N          -2.1563    0.1042   -0.2416 N.2     1  UNL11      -0.0071
      6 N          -3.2202   -0.5254   -0.7057 N.am    1  UNL11      -0.0356
      7 C          -4.4797   -0.1412   -0.4165 C.2     1  UNL11       0.4383
      8 O          -5.4764   -0.7383   -0.8566 O.2     1  UNL11      -0.2116
      9 C          -4.6238    0.9698    0.4085 C.ar    1  UNL11       0.1004
     10 C          -5.8649    1.4374    0.7584 C.ar    1  UNL11      -0.0441
     11 C          -5.9845    2.5445    1.5793 C.ar    1  UNL11      -0.0608
     12 C          -4.8690    3.2112    2.0707 C.ar    1  UNL11      -0.0611
     13 C          -3.6386    2.7118    1.6973 C.ar    1  UNL11      -0.0518
     14 C          -3.5099    1.6239    0.8906 C.ar    1  UNL11       0.0194
     15 N          -0.0706    1.0008   -1.1418 N.am    1  UNL11      -0.3109
     16 C          -1.3435    0.4187   -1.5244 C.3     1  UNL11       0.0368
     17 C          -2.1931    1.3469   -2.2899 C.ar    1  UNL11      -0.0302
     18 C          -1.7591    2.6118   -2.5727 C.ar    1  UNL11      -0.0544
     19 C          -2.5764    3.4778   -3.2923 C.ar    1  UNL11      -0.0261
     20 C          -3.8126    3.0974   -3.7292 C.ar    1  UNL11       0.1234
     21 F          -4.6300    3.9371   -4.4387 F       1  UNL11      -0.2055
     22 C          -4.2573    1.8232   -3.4479 C.ar    1  UNL11      -0.0261
     23 C          -3.4354    0.9518   -2.7240 C.ar    1  UNL11      -0.0544
     24 H          -0.7266    1.5027    2.0643 H       1  UNL11       0.0424
     25 H          -1.2237    2.9286    1.1333 H       1  UNL11       0.0424
     26 H          -3.1405   -1.3724   -1.3343 H       1  UNL11       0.4829
     27 H          -6.7349    0.9463    0.3951 H       1  UNL11       0.0627
     28 H          -6.9716    2.9140    1.8560 H       1  UNL11       0.0618
     29 H          -4.9933    4.0746    2.7107 H       1  UNL11       0.0618
     30 H          -2.7548    3.2080    2.0639 H       1  UNL11       0.0624
     31 H           0.7845    0.9305   -1.7628 H       1  UNL11       0.1490
     32 H          -1.1647   -0.5283   -2.1119 H       1  UNL11       0.0512
     33 H          -1.8718    0.0661   -0.5919 H       1  UNL11       0.0512
     34 H          -0.7931    2.9977   -2.2682 H       1  UNL11       0.0622
     35 H          -2.2216    4.4829   -3.5125 H       1  UNL11       0.0646
     36 H          -5.2303    1.4831   -3.7754 H       1  UNL11       0.0646
     37 H          -3.8022   -0.0617   -2.5057 H       1  UNL11       0.0622
@<TRIPOS>BOND
     1     1     2    2
     2     2     3    1
     3     2    15   am
     4     3     4    1
     5     3    24    1
     6     3    25    1
     7     4     5    2
     8     5     6    1
     9     6     7   am
    10     6    26    1
    11     7     8    2
    12     7     9    1
    13     9    10   ar
    14    10    11   ar
    15    10    27    1
    16    11    12   ar
    17    11    28    1
    18    12    13   ar
    19    12    29    1
    20    13    14   ar
    21    13    30    1
    22    14     4    1
    23    14     9   ar
    24    15    16    1
    25    15    31    1
    26    16    17    1
    27    16    32    1
    28    16    33    1
    29    17    18   ar
    30    18    19   ar
    31    18    34    1
    32    19    20   ar
    33    19    35    1
    34    20    21    1
    35    20    22   ar
    36    22    23   ar
    37    22    36    1
    38    23    17   ar
    39    23    37    1
@<TRIPOS>MOLECULE
*****
 37 39 0 0 0
SMALL
GASTEIGER

@<TRIPOS>ATOM
      1 O           1.2214    2.1986    0.3778 O.2     1  UNL11      -0.2754
      2 C           0.0974    1.6852    0.0714 C.2     1  UNL11       0.2193
      3 C          -1.0135    1.8440    1.0476 C.3     1  UNL11       0.0725
      4 C          -2.2447    1.1817    0.5584 C.2     1  UNL11       0.1237
      5 N          -2.4854   -0.1045    0.8691 N.2     1  UNL11      -0.0071
      6 N          -3.5664   -0.7438    0.4611 N.am    1  UNL11      -0.0356
      7 C          -4.5157   -0.1614   -0.2986 C.2     1  UNL11       0.4383
      8 O          -5.5305   -0.7689   -0.6791 O.2     1  UNL11      -0.2116
      9 C          -4.3122    1.1701   -0.6471 C.ar    1  UNL11       0.1004
     10 C          -5.2213    1.8486   -1.4181 C.ar    1  UNL11      -0.0441
     11 C          -4.9980    3.1721   -1.7531 C.ar    1  UNL11      -0.0608
     12 C          -3.8626    3.8501   -1.3270 C.ar    1  UNL11      -0.0611
     13 C          -2.9719    3.1351   -0.5538 C.ar    1  UNL11      -0.0518
     14 C          -3.1819    1.8334   -0.2185 C.ar    1  UNL11       0.0194
     15 N          -0.0706    1.0008   -1.1418 N.am    1  UNL11      -0.3109
     16 C          -1.3435    0.4187   -1.5244 C.3     1  UNL11       0.0368
     17 C          -2.1931    1.3469   -2.2899 C.ar    1  UNL11      -0.0302
     18 C          -2.1054    2.6958   -2.0867 C.ar    1  UNL11      -0.0544
     19 C          -2.9191    3.5583   -2.8144 C.ar    1  UNL11      -0.0261
     20 C          -3.8123    3.0923   -3.7356 C.ar    1  UNL11       0.1234
     21 F          -4.6209    3.9274   -4.4606 F       1  UNL11      -0.2055
     22 C          -3.9066    1.7333   -3.9462 C.ar    1  UNL11      -0.0261
     23 C          -3.0882    0.8652   -3.2143 C.ar    1  UNL11      -0.0544
     24 H          -0.7266    1.5027    2.0643 H       1  UNL11       0.0424
     25 H          -1.2237    2.9286    1.1333 H       1  UNL11       0.0424
     26 H          -3.7469   -1.7557    0.7109 H       1  UNL11       0.4829
     27 H          -6.0980    1.3528   -1.7583 H       1  UNL11       0.0627
     28 H          -5.7219    3.7090   -2.3657 H       1  UNL11       0.0618
     29 H          -3.7146    4.8852   -1.6048 H       1  UNL11       0.0618
     30 H          -2.0820    3.6351   -0.2077 H       1  UNL11       0.0624
     31 H           0.7845    0.9305   -1.7628 H       1  UNL11       0.1490
     32 H          -1.1647   -0.5283   -2.1119 H       1  UNL11       0.0512
     33 H          -1.8718    0.0661   -0.5919 H       1  UNL11       0.0512
     34 H          -1.4243    3.1536   -1.3787 H       1  UNL11       0.0622
     35 H          -2.8415    4.6307   -2.6453 H       1  UNL11       0.0646
     36 H          -4.6017    1.3236   -4.6664 H       1  UNL11       0.0646
     37 H          -3.1736   -0.2168   -3.3914 H       1  UNL11       0.0622
@<TRIPOS>BOND
     1     1     2    2
     2     2     3    1
     3     2    15   am
     4     3     4    1
     5     3    24    1
     6     3    25    1
     7     4     5    2
     8     5     6    1
     9     6     7   am
    10     6    26    1
    11     7     8    2
    12     7     9    1
    13     9    10   ar
    14    10    11   ar
    15    10    27    1
    16    11    12   ar
    17    11    28    1
    18    12    13   ar
    19    12    29    1
    20    13    14   ar
    21    13    30    1
    22    14     4    1
    23    14     9   ar
    24    15    16    1
    25    15    31    1
    26    16    17    1
    27    16    32    1
    28    16    33    1
    29    17    18   ar
    30    18    19   ar
    31    18    34    1
    32    19    20   ar
    33    19    35    1
    34    20    21    1
    35    20    22   ar
    36    22    23   ar
    37    22    36    1
    38    23    17   ar
    39    23    37    1
@<TRIPOS>MOLECULE
*****
 37 39 0 0 0
SMALL
GASTEIGER

@<TRIPOS>ATOM
      1 O           1.2818    1.6451    0.5366 O.2     1  UNL11      -0.2754
      2 C           0.0974    1.6852    0.0714 C.2     1  UNL11       0.2193
      3 C          -1.0135    1.8440    1.0476 C.3     1  UNL11       0.0725
      4 C          -2.2447    1.1817    0.5584 C.2     1  UNL11       0.1237
      5 N          -2.8059    0.1916    1.2750 N.2     1  UNL11      -0.0071
      6 N          -3.9031   -0.4324    0.8871 N.am    1  UNL11      -0.0356
      7 C          -4.5498   -0.1292   -0.2563 C.2     1  UNL11       0.4383
      8 O          -5.5819   -0.7204   -0.6153 O.2     1  UNL11      -0.2116
      9 C          -4.0077    0.8895   -1.0335 C.ar    1  UNL11       0.1004
     10 C          -4.5933    1.2693   -2.2142 C.ar    1  UNL11      -0.0441
     11 C          -4.0364    2.2843   -2.9714 C.ar    1  UNL11      -0.0608
     12 C          -2.8821    2.9446   -2.5687 C.ar    1  UNL11      -0.0611
     13 C          -2.3222    2.5351   -1.3765 C.ar    1  UNL11      -0.0518
     14 C          -2.8618    1.5382   -0.6243 C.ar    1  UNL11       0.0194
     15 N          -0.1339    1.5828   -1.3086 N.am    1  UNL11      -0.3109
     16 C          -1.4713    1.6404   -1.8686 C.3     1  UNL11       0.0368
     17 C          -1.4875    1.4965   -3.3344 C.ar    1  UNL11      -0.0302
     18 C          -1.9963    2.4899   -4.1234 C.ar    1  UNL11      -0.0544
     19 C          -2.0089    2.3356   -5.5061 C.ar    1  UNL11      -0.0261
     20 C          -1.5227    1.2092   -6.1047 C.ar    1  UNL11       0.1234
     21 F          -1.5274    1.0410   -7.4643 F       1  UNL11      -0.2055
     22 C          -1.0078    0.2029   -5.3156 C.ar    1  UNL11      -0.0261
     23 C          -0.9950    0.3577   -3.9246 C.ar    1  UNL11      -0.0544
     24 H          -0.7266    1.5027    2.0643 H       1  UNL11       0.0424
     25 H          -1.2237    2.9286    1.1333 H       1  UNL11       0.0424
     26 H          -4.3372   -1.2101    1.4578 H       1  UNL11       0.4829
     27 H          -5.4766    0.7796   -2.5459 H       1  UNL11       0.0627
     28 H          -4.5037    2.5844   -3.9090 H       1  UNL11       0.0618
     29 H          -2.4692    3.7346   -3.1817 H       1  UNL11       0.0618
     30 H          -1.4264    3.0297   -1.0378 H       1  UNL11       0.0624
     31 H           0.7222    1.4587   -1.9197 H       1  UNL11       0.1490
     32 H          -2.1169    0.8493   -1.3874 H       1  UNL11       0.0512
     33 H          -1.9506    2.6123   -1.5547 H       1  UNL11       0.0512
     34 H          -2.4006    3.4177   -3.7354 H       1  UNL11       0.0622
     35 H          -2.4162    3.1325   -6.1256 H       1  UNL11       0.0646
     36 H          -0.6134   -0.7054   -5.7505 H       1  UNL11       0.0646
     37 H          -0.5821   -0.4527   -3.3065 H       1  UNL11       0.0622
@<TRIPOS>BOND
     1     1     2    2
     2     2     3    1
     3     2    15   am
     4     3     4    1
     5     3    24    1
     6     3    25    1
     7     4     5    2
     8     5     6    1
     9     6     7   am
    10     6    26    1
    11     7     8    2
    12     7     9    1
    13     9    10   ar
    14    10    11   ar
    15    10    27    1
    16    11    12   ar
    17    11    28    1
    18    12    13   ar
    19    12    29    1
    20    13    14   ar
    21    13    30    1
    22    14     4    1
    23    14     9   ar
    24    15    16    1
    25    15    31    1
    26    16    17    1
    27    16    32    1
    28    16    33    1
    29    17    18   ar
    30    18    19   ar
    31    18    34    1
    32    19    20   ar
    33    19    35    1
    34    20    21    1
    35    20    22   ar
    36    22    23   ar
    37    22    36    1
    38    23    17   ar
    39    23    37    1
@<TRIPOS>MOLECULE
*****
 37 39 0 0 0
SMALL
GASTEIGER

@<TRIPOS>ATOM
      1 O           0.2248    2.5859   -0.8193 O.2     1  UNL11      -0.2754
      2 C           0.0974    1.6852    0.0714 C.2     1  UNL11       0.2193
      3 C          -1.0135    1.8440    1.0476 C.3     1  UNL11       0.0725
      4 C          -2.2447    1.1817    0.5584 C.2     1  UNL11       0.1237
      5 N          -3.4512    1.6662    0.9026 N.2     1  UNL11      -0.0071
      6 N          -4.5804    1.1165    0.4946 N.am    1  UNL11      -0.0356
      7 C          -4.6171    0.0270   -0.2986 C.2     1  UNL11       0.4383
      8 O          -5.6832   -0.4851   -0.6788 O.2     1  UNL11      -0.2116
      9 C          -3.3932   -0.5121   -0.6824 C.ar    1  UNL11       0.1004
     10 C          -3.3275   -1.6206   -1.4876 C.ar    1  UNL11      -0.0441
     11 C          -2.0995   -2.1402   -1.8561 C.ar    1  UNL11      -0.0608
     12 C          -0.9080   -1.5664   -1.4301 C.ar    1  UNL11      -0.0611
     13 C          -1.0143   -0.4536   -0.6220 C.ar    1  UNL11      -0.0518
     14 C          -2.2168    0.0654   -0.2539 C.ar    1  UNL11       0.0194
     15 N           0.9771    0.5931    0.1167 N.am    1  UNL11      -0.3109
     16 C           0.8471   -0.4559    1.1107 C.3     1  UNL11       0.0368
     17 C          -0.2819   -0.2385    2.0315 C.ar    1  UNL11      -0.0302
     18 C          -0.5369   -1.1272    3.0383 C.ar    1  UNL11      -0.0544
     19 C          -1.6105   -0.9097    3.8960 C.ar    1  UNL11      -0.0261
     20 C          -2.4258    0.1767    3.7604 C.ar    1  UNL11       0.1234
     21 F          -3.4870    0.4061    4.5959 F       1  UNL11      -0.2055
     22 C          -2.1750    1.0775    2.7474 C.ar    1  UNL11      -0.0261
     23 C          -1.0950    0.8591    1.8844 C.ar    1  UNL11      -0.0544
     24 H          -0.7266    1.5027    2.0643 H       1  UNL11       0.0424
     25 H          -1.2237    2.9286    1.1333 H       1  UNL11       0.0424
     26 H          -5.5248    1.5051    0.7706 H       1  UNL11       0.4829
     27 H          -4.2244   -2.0797   -1.8266 H       1  UNL11       0.0627
     28 H          -2.0499   -3.0208   -2.4960 H       1  UNL11       0.0618
     29 H           0.0378   -1.9949   -1.7342 H       1  UNL11       0.0618
     30 H          -0.1066    0.0138   -0.2766 H       1  UNL11       0.0624
     31 H           1.7436    0.5778   -0.6141 H       1  UNL11       0.1490
     32 H           0.7488   -1.4552    0.5950 H       1  UNL11       0.0512
     33 H           1.8190   -0.5356    1.6780 H       1  UNL11       0.0512
     34 H           0.0581   -2.0144    3.2216 H       1  UNL11       0.0622
     35 H          -1.8051   -1.6232    4.6947 H       1  UNL11       0.0646
     36 H          -2.7973    1.9506    2.6057 H       1  UNL11       0.0646
     37 H          -0.9061    1.5848    1.0801 H       1  UNL11       0.0622
@<TRIPOS>BOND
     1     1     2    2
     2     2     3    1
     3     2    15   am
     4     3     4    1
     5     3    24    1
     6     3    25    1
     7     4     5    2
     8     5     6    1
     9     6     7   am
    10     6    26    1
    11     7     8    2
    12     7     9    1
    13     9    10   ar
    14    10    11   ar
    15    10    27    1
    16    11    12   ar
    17    11    28    1
    18    12    13   ar
    19    12    29    1
    20    13    14   ar
    21    13    30    1
    22    14     4    1
    23    14     9   ar
    24    15    16    1
    25    15    31    1
    26    16    17    1
    27    16    32    1
    28    16    33    1
    29    17    18   ar
    30    18    19   ar
    31    18    34    1
    32    19    20   ar
    33    19    35    1
    34    20    21    1
    35    20    22   ar
    36    22    23   ar
    37    22    36    1
    38    23    17   ar
    39    23    37    1
@<TRIPOS>MOLECULE
*****
 37 39 0 0 0
SMALL
GASTEIGER

@<TRIPOS>ATOM
      1 O           0.8502    0.6671    0.2045 O.2     1  UNL11      -0.2754
      2 C           0.0974    1.6852    0.0714 C.2     1  UNL11       0.2193
      3 C          -1.0135    1.8440    1.0476 C.3     1  UNL11       0.0725
      4 C          -2.2447    1.1817    0.5584 C.2     1  UNL11       0.1237
      5 N          -3.3634    1.9020    0.3623 N.2     1  UNL11      -0.0071
      6 N          -4.4879    1.3638   -0.0730 N.am    1  UNL11      -0.0356
      7 C          -4.6072    0.0511   -0.3562 C.2     1  UNL11       0.4383
      8 O          -5.6683   -0.4487   -0.7655 O.2     1  UNL11      -0.2116
      9 C          -3.4761   -0.7371   -0.1692 C.ar    1  UNL11       0.1004
     10 C          -3.4989   -2.0837   -0.4293 C.ar    1  UNL11      -0.0441
     11 C          -2.3625   -2.8484   -0.2355 C.ar    1  UNL11      -0.0608
     12 C          -1.1764   -2.2880    0.2224 C.ar    1  UNL11      -0.0611
     13 C          -1.1921   -0.9316    0.4728 C.ar    1  UNL11      -0.0518
     14 C          -2.3041   -0.1706    0.2854 C.ar    1  UNL11       0.0194
     15 N           0.3201    2.6108   -0.9592 N.am    1  UNL11      -0.3109
     16 C          -0.5120    3.7878   -1.1262 C.3     1  UNL11       0.0368
     17 C          -0.0064    4.9585   -0.3889 C.ar    1  UNL11      -0.0302
     18 C           0.7034    4.7962    0.7679 C.ar    1  UNL11      -0.0544
     19 C           1.1691    5.9128    1.4549 C.ar    1  UNL11      -0.0261
     20 C           0.9358    7.1796    1.0028 C.ar    1  UNL11       0.1234
     21 F           1.3870    8.2898    1.6666 F       1  UNL11      -0.2055
     22 C           0.2208    7.3513   -0.1632 C.ar    1  UNL11      -0.0261
     23 C          -0.2480    6.2283   -0.8545 C.ar    1  UNL11      -0.0544
     24 H          -0.7266    1.5027    2.0643 H       1  UNL11       0.0424
     25 H          -1.2237    2.9286    1.1333 H       1  UNL11       0.0424
     26 H          -5.3628    1.9389   -0.2243 H       1  UNL11       0.4829
     27 H          -4.3940   -2.5378   -0.7795 H       1  UNL11       0.0627
     28 H          -2.3831   -3.9179   -0.4430 H       1  UNL11       0.0618
     29 H          -0.3034   -2.9110    0.3648 H       1  UNL11       0.0618
     30 H          -0.2860   -0.4686    0.8282 H       1  UNL11       0.0624
     31 H           1.1285    2.4017   -1.6108 H       1  UNL11       0.1490
     32 H          -0.6127    4.0268   -2.2248 H       1  UNL11       0.0512
     33 H          -1.5630    3.5332   -0.8045 H       1  UNL11       0.0512
     34 H           0.9373    3.8295    1.1988 H       1  UNL11       0.0622
     35 H           1.7334    5.7730    2.3751 H       1  UNL11       0.0646
     36 H           0.0140    8.3380   -0.5548 H       1  UNL11       0.0646
     37 H          -0.8175    6.3790   -1.7831 H       1  UNL11       0.0622
@<TRIPOS>BOND
     1     1     2    2
     2     2     3    1
     3     2    15   am
     4     3     4    1
     5     3    24    1
     6     3    25    1
     7     4     5    2
     8     5     6    1
     9     6     7   am
    10     6    26    1
    11     7     8    2
    12     7     9    1
    13     9    10   ar
    14    10    11   ar
    15    10    27    1
    16    11    12   ar
    17    11    28    1
    18    12    13   ar
    19    12    29    1
    20    13    14   ar
    21    13    30    1
    22    14     4    1
    23    14     9   ar
    24    15    16    1
    25    15    31    1
    26    16    17    1
    27    16    32    1
    28    16    33    1
    29    17    18   ar
    30    18    19   ar
    31    18    34    1
    32    19    20   ar
    33    19    35    1
    34    20    21    1
    35    20    22   ar
    36    22    23   ar
    37    22    36    1
    38    23    17   ar
    39    23    37    1
@<TRIPOS>MOLECULE
*****
 37 39 0 0 0
SMALL
GASTEIGER

@<TRIPOS>ATOM
      1 O           1.2214    2.1986    0.3778 O.2     1  UNL11      -0.2754
      2 C           0.0974    1.6852    0.0714 C.2     1  UNL11       0.2193
      3 C          -1.0135    1.8440    1.0476 C.3     1  UNL11       0.0725
      4 C          -2.2447    1.1817    0.5584 C.2     1  UNL11       0.1237
      5 N          -2.4854   -0.1045    0.8691 N.2     1  UNL11      -0.0071
      6 N          -3.5664   -0.7438    0.4611 N.am    1  UNL11      -0.0356
      7 C          -4.5157   -0.1614   -0.2986 C.2     1  UNL11       0.4383
      8 O          -5.5305   -0.7689   -0.6791 O.2     1  UNL11      -0.2116
      9 C          -4.3122    1.1701   -0.6471 C.ar    1  UNL11       0.1004
     10 C          -5.2213    1.8486   -1.4181 C.ar    1  UNL11      -0.0441
     11 C          -4.9980    3.1721   -1.7531 C.ar    1  UNL11      -0.0608
     12 C          -3.8626    3.8501   -1.3270 C.ar    1  UNL11      -0.0611
     13 C          -2.9719    3.1351   -0.5538 C.ar    1  UNL11      -0.0518
     14 C          -3.1819    1.8334   -0.2185 C.ar    1  UNL11       0.0194
     15 N          -0.0706    1.0008   -1.1418 N.am    1  UNL11      -0.3109
     16 C          -1.3435    0.4187   -1.5244 C.3     1  UNL11       0.0368
     17 C          -2.1931    1.3469   -2.2899 C.ar    1  UNL11      -0.0302
     18 C          -2.5954    1.0335   -3.5582 C.ar    1  UNL11      -0.0544
     19 C          -3.3934    1.9240   -4.2695 C.ar    1  UNL11      -0.0261
     20 C          -3.7910    3.1144   -3.7325 C.ar    1  UNL11       0.1234
     21 F          -4.5765    4.0025   -4.4188 F       1  UNL11      -0.2055
     22 C          -3.3894    3.4375   -2.4540 C.ar    1  UNL11      -0.0261
     23 C          -2.5866    2.5420   -1.7381 C.ar    1  UNL11      -0.0544
     24 H          -0.7266    1.5027    2.0643 H       1  UNL11       0.0424
     25 H          -1.2237    2.9286    1.1333 H       1  UNL11       0.0424
     26 H          -3.7469   -1.7557    0.7109 H       1  UNL11       0.4829
     27 H          -6.0980    1.3528   -1.7583 H       1  UNL11       0.0627
     28 H          -5.7219    3.7090   -2.3657 H       1  UNL11       0.0618
     29 H          -3.7146    4.8852   -1.6048 H       1  UNL11       0.0618
     30 H          -2.0820    3.6351   -0.2077 H       1  UNL11       0.0624
     31 H           0.7845    0.9305   -1.7628 H       1  UNL11       0.1490
     32 H          -1.1647   -0.5283   -2.1119 H       1  UNL11       0.0512
     33 H          -1.8718    0.0661   -0.5919 H       1  UNL11       0.0512
     34 H          -2.3298    0.1114   -4.0621 H       1  UNL11       0.0622
     35 H          -3.7085    1.6650   -5.2786 H       1  UNL11       0.0646
     36 H          -3.6823    4.3707   -1.9925 H       1  UNL11       0.0646
     37 H          -2.2726    2.8120   -0.7193 H       1  UNL11       0.0622
@<TRIPOS>BOND
     1     1     2    2
     2     2     3    1
     3     2    15   am
     4     3     4    1
     5     3    24    1
     6     3    25    1
     7     4     5    2
     8     5     6    1
     9     6     7   am
    10     6    26    1
    11     7     8    2
    12     7     9    1
    13     9    10   ar
    14    10    11   ar
    15    10    27    1
    16    11    12   ar
    17    11    28    1
    18    12    13   ar
    19    12    29    1
    20    13    14   ar
    21    13    30    1
    22    14     4    1
    23    14     9   ar
    24    15    16    1
    25    15    31    1
    26    16    17    1
    27    16    32    1
    28    16    33    1
    29    17    18   ar
    30    18    19   ar
    31    18    34    1
    32    19    20   ar
    33    19    35    1
    34    20    21    1
    35    20    22   ar
    36    22    23   ar
    37    22    36    1
    38    23    17   ar
    39    23    37    1
@<TRIPOS>MOLECULE
*****
 37 39 0 0 0
SMALL
GASTEIGER

@<TRIPOS>ATOM
      1 O          -0.2162    1.5868   -1.1586 O.2     1  UNL11      -0.2754
      2 C           0.0974    1.6852    0.0714 C.2     1  UNL11       0.2193
      3 C          -1.0135    1.8440    1.0476 C.3     1  UNL11       0.0725
      4 C          -2.2447    1.1817    0.5584 C.2     1  UNL11       0.1237
      5 N          -3.1291    1.8705   -0.1847 N.2     1  UNL11      -0.0071
      6 N          -4.2416    1.3303   -0.6475 N.am    1  UNL11      -0.0356
      7 C          -4.5819    0.0468   -0.4140 C.2     1  UNL11       0.4383
      8 O          -5.6303   -0.4552   -0.8526 O.2     1  UNL11      -0.2116
      9 C          -3.6983   -0.7082    0.3509 C.ar    1  UNL11       0.1004
     10 C          -3.9575   -2.0230    0.6429 C.ar    1  UNL11      -0.0441
     11 C          -3.0652   -2.7546    1.4060 C.ar    1  UNL11      -0.0608
     12 C          -1.8931   -2.1918    1.8959 C.ar    1  UNL11      -0.0611
     13 C          -1.6669   -0.8679    1.5815 C.ar    1  UNL11      -0.0518
     14 C          -2.5379   -0.1396    0.8319 C.ar    1  UNL11       0.0194
     15 N           1.4409    1.6433    0.4736 N.am    1  UNL11      -0.3109
     16 C           1.8271    1.7379    1.8691 C.3     1  UNL11       0.0368
     17 C           3.2860    1.6892    2.0663 C.ar    1  UNL11      -0.0302
     18 C           3.8513    0.7005    2.8221 C.ar    1  UNL11      -0.0544
     19 C           5.2305    0.6723    3.0028 C.ar    1  UNL11      -0.0261
     20 C           6.0449    1.6131    2.4415 C.ar    1  UNL11       0.1234
     21 F           7.4045    1.6002    2.6091 F       1  UNL11      -0.2055
     22 C           5.4822    2.6134    1.6779 C.ar    1  UNL11      -0.0261
     23 C           4.0948    2.6421    1.4959 C.ar    1  UNL11      -0.0544
     24 H          -0.7266    1.5027    2.0643 H       1  UNL11       0.0424
     25 H          -1.2237    2.9286    1.1333 H       1  UNL11       0.0424
     26 H          -4.9311    1.8803   -1.2314 H       1  UNL11       0.4829
     27 H          -4.8479   -2.4776    0.2813 H       1  UNL11       0.0627
     28 H          -3.2733   -3.7991    1.6365 H       1  UNL11       0.0618
     29 H          -1.2139   -2.7884    2.4903 H       1  UNL11       0.0618
     30 H          -0.7652   -0.4043    1.9470 H       1  UNL11       0.0624
     31 H           2.1586    1.5411   -0.2985 H       1  UNL11       0.1490
     32 H           1.3998    2.6820    2.3165 H       1  UNL11       0.0512
     33 H           1.3164    0.9095    2.4400 H       1  UNL11       0.0512
     34 H           3.2831   -0.0875    3.3028 H       1  UNL11       0.0622
     35 H           5.6709   -0.1193    3.6063 H       1  UNL11       0.0646
     36 H           6.0923    3.3779    1.2163 H       1  UNL11       0.0646
     37 H           3.6584    3.4457    0.8850 H       1  UNL11       0.0622
@<TRIPOS>BOND
     1     1     2    2
     2     2     3    1
     3     2    15   am
     4     3     4    1
     5     3    24    1
     6     3    25    1
     7     4     5    2
     8     5     6    1
     9     6     7   am
    10     6    26    1
    11     7     8    2
    12     7     9    1
    13     9    10   ar
    14    10    11   ar
    15    10    27    1
    16    11    12   ar
    17    11    28    1
    18    12    13   ar
    19    12    29    1
    20    13    14   ar
    21    13    30    1
    22    14     4    1
    23    14     9   ar
    24    15    16    1
    25    15    31    1
    26    16    17    1
    27    16    32    1
    28    16    33    1
    29    17    18   ar
    30    18    19   ar
    31    18    34    1
    32    19    20   ar
    33    19    35    1
    34    20    21    1
    35    20    22   ar
    36    22    23   ar
    37    22    36    1
    38    23    17   ar
    39    23    37    1
@<TRIPOS>MOLECULE
*****
 37 39 0 0 0
SMALL
GASTEIGER

@<TRIPOS>ATOM
      1 O           1.2214    2.1986    0.3778 O.2     1  UNL11      -0.2754
      2 C           0.0974    1.6852    0.0714 C.2     1  UNL11       0.2193
      3 C          -1.0135    1.8440    1.0476 C.3     1  UNL11       0.0725
      4 C          -2.2447    1.1817    0.5584 C.2     1  UNL11       0.1237
      5 N          -2.1563    0.1042   -0.2416 N.2     1  UNL11      -0.0071
      6 N          -3.2202   -0.5254   -0.7057 N.am    1  UNL11      -0.0356
      7 C          -4.4797   -0.1412   -0.4165 C.2     1  UNL11       0.4383
      8 O          -5.4764   -0.7383   -0.8566 O.2     1  UNL11      -0.2116
      9 C          -4.6238    0.9698    0.4085 C.ar    1  UNL11       0.1004
     10 C          -5.8649    1.4374    0.7584 C.ar    1  UNL11      -0.0441
     11 C          -5.9845    2.5445    1.5793 C.ar    1  UNL11      -0.0608
     12 C          -4.8690    3.2112    2.0707 C.ar    1  UNL11      -0.0611
     13 C          -3.6386    2.7118    1.6973 C.ar    1  UNL11      -0.0518
     14 C          -3.5099    1.6239    0.8906 C.ar    1  UNL11       0.0194
     15 N          -0.0706    1.0008   -1.1418 N.am    1  UNL11      -0.3109
     16 C           1.0147    0.8476   -2.0927 C.3     1  UNL11       0.0368
     17 C           1.8044   -0.3760   -1.8715 C.ar    1  UNL11      -0.0302
     18 C           1.4871   -1.2318   -0.8540 C.ar    1  UNL11      -0.0544
     19 C           2.2467   -2.3804   -0.6555 C.ar    1  UNL11      -0.0261
     20 C           3.3110   -2.6814   -1.4556 C.ar    1  UNL11       0.1234
     21 F           4.0694   -3.8078   -1.2743 F       1  UNL11      -0.2055
     22 C           3.6371   -1.8231   -2.4839 C.ar    1  UNL11      -0.0261
     23 C           2.8733   -0.6675   -2.6839 C.ar    1  UNL11      -0.0544
     24 H          -0.7266    1.5027    2.0643 H       1  UNL11       0.0424
     25 H          -1.2237    2.9286    1.1333 H       1  UNL11       0.0424
     26 H          -3.1405   -1.3724   -1.3343 H       1  UNL11       0.4829
     27 H          -6.7349    0.9463    0.3951 H       1  UNL11       0.0627
     28 H          -6.9716    2.9140    1.8560 H       1  UNL11       0.0618
     29 H          -4.9933    4.0746    2.7107 H       1  UNL11       0.0618
     30 H          -2.7548    3.2080    2.0639 H       1  UNL11       0.0624
     31 H          -1.0349    0.6037   -1.3266 H       1  UNL11       0.1490
     32 H           0.6023    0.8664   -3.1433 H       1  UNL11       0.0512
     33 H           1.6704    1.7643   -2.0402 H       1  UNL11       0.0512
     34 H           0.6593   -1.0742   -0.1724 H       1  UNL11       0.0622
     35 H           1.9858   -3.0556    0.1574 H       1  UNL11       0.0646
     36 H           4.4730   -2.0249   -3.1399 H       1  UNL11       0.0646
     37 H           3.1443    0.0092   -3.5073 H       1  UNL11       0.0622
@<TRIPOS>BOND
     1     1     2    2
     2     2     3    1
     3     2    15   am
     4     3     4    1
     5     3    24    1
     6     3    25    1
     7     4     5    2
     8     5     6    1
     9     6     7   am
    10     6    26    1
    11     7     8    2
    12     7     9    1
    13     9    10   ar
    14    10    11   ar
    15    10    27    1
    16    11    12   ar
    17    11    28    1
    18    12    13   ar
    19    12    29    1
    20    13    14   ar
    21    13    30    1
    22    14     4    1
    23    14     9   ar
    24    15    16    1
    25    15    31    1
    26    16    17    1
    27    16    32    1
    28    16    33    1
    29    17    18   ar
    30    18    19   ar
    31    18    34    1
    32    19    20   ar
    33    19    35    1
    34    20    21    1
    35    20    22   ar
    36    22    23   ar
    37    22    36    1
    38    23    17   ar
    39    23    37    1
@<TRIPOS>MOLECULE
*****
 37 39 0 0 0
SMALL
GASTEIGER

@<TRIPOS>ATOM
      1 O           0.4527    0.4979   -0.2203 O.2     1  UNL11      -0.2754
      2 C           0.0974    1.6852    0.0714 C.2     1  UNL11       0.2193
      3 C          -1.0135    1.8440    1.0476 C.3     1  UNL11       0.0725
      4 C          -2.2447    1.1817    0.5584 C.2     1  UNL11       0.1237
      5 N          -3.3634    1.9020    0.3623 N.2     1  UNL11      -0.0071
      6 N          -4.4879    1.3638   -0.0730 N.am    1  UNL11      -0.0356
      7 C          -4.6072    0.0511   -0.3562 C.2     1  UNL11       0.4383
      8 O          -5.6683   -0.4487   -0.7655 O.2     1  UNL11      -0.2116
      9 C          -3.4761   -0.7371   -0.1692 C.ar    1  UNL11       0.1004
     10 C          -3.4989   -2.0837   -0.4293 C.ar    1  UNL11      -0.0441
     11 C          -2.3625   -2.8484   -0.2355 C.ar    1  UNL11      -0.0608
     12 C          -1.1764   -2.2880    0.2224 C.ar    1  UNL11      -0.0611
     13 C          -1.1921   -0.9316    0.4728 C.ar    1  UNL11      -0.0518
     14 C          -2.3041   -0.1706    0.2854 C.ar    1  UNL11       0.0194
     15 N           0.7380    2.7885   -0.5125 N.am    1  UNL11      -0.3109
     16 C           0.3647    4.1525   -0.1879 C.3     1  UNL11       0.0368
     17 C           0.5439    4.4736    1.2385 C.ar    1  UNL11      -0.0302
     18 C           0.8489    5.7472    1.6299 C.ar    1  UNL11      -0.0544
     19 C           1.0201    6.0323    2.9808 C.ar    1  UNL11      -0.0261
     20 C           0.8911    5.0672    3.9376 C.ar    1  UNL11       0.1234
     21 F           1.0563    5.3305    5.2718 F       1  UNL11      -0.2055
     22 C           0.5836    3.7803    3.5506 C.ar    1  UNL11      -0.0261
     23 C           0.4113    3.4931    2.1917 C.ar    1  UNL11      -0.0544
     24 H          -0.7266    1.5027    2.0643 H       1  UNL11       0.0424
     25 H          -1.2237    2.9286    1.1333 H       1  UNL11       0.0424
     26 H          -5.3628    1.9389   -0.2243 H       1  UNL11       0.4829
     27 H          -4.3940   -2.5378   -0.7795 H       1  UNL11       0.0627
     28 H          -2.3831   -3.9179   -0.4430 H       1  UNL11       0.0618
     29 H          -0.3034   -2.9110    0.3648 H       1  UNL11       0.0618
     30 H          -0.2860   -0.4686    0.8282 H       1  UNL11       0.0624
     31 H           1.5084    2.5705   -1.2059 H       1  UNL11       0.1490
     32 H           0.9544    4.8690   -0.8306 H       1  UNL11       0.0512
     33 H          -0.7052    4.3175   -0.5058 H       1  UNL11       0.0512
     34 H           0.9679    6.5753    0.9408 H       1  UNL11       0.0622
     35 H           1.2626    7.0497    3.2823 H       1  UNL11       0.0646
     36 H           0.4732    2.9868    4.2772 H       1  UNL11       0.0646
     37 H           0.1668    2.4624    1.8962 H       1  UNL11       0.0622
@<TRIPOS>BOND
     1     1     2    2
     2     2     3    1
     3     2    15   am
     4     3     4    1
     5     3    24    1
     6     3    25    1
     7     4     5    2
     8     5     6    1
     9     6     7   am
    10     6    26    1
    11     7     8    2
    12     7     9    1
    13     9    10   ar
    14    10    11   ar
    15    10    27    1
    16    11    12   ar
    17    11    28    1
    18    12    13   ar
    19    12    29    1
    20    13    14   ar
    21    13    30    1
    22    14     4    1
    23    14     9   ar
    24    15    16    1
    25    15    31    1
    26    16    17    1
    27    16    32    1
    28    16    33    1
    29    17    18   ar
    30    18    19   ar
    31    18    34    1
    32    19    20   ar
    33    19    35    1
    34    20    21    1
    35    20    22   ar
    36    22    23   ar
    37    22    36    1
    38    23    17   ar
    39    23    37    1
@<TRIPOS>MOLECULE
*****
 37 39 0 0 0
SMALL
GASTEIGER

@<TRIPOS>ATOM
      1 O          -0.0743    2.1721   -1.0923 O.2     1  UNL11      -0.2754
      2 C           0.0974    1.6852    0.0714 C.2     1  UNL11       0.2193
      3 C          -1.0135    1.8440    1.0476 C.3     1  UNL11       0.0725
      4 C          -2.2447    1.1817    0.5584 C.2     1  UNL11       0.1237
      5 N          -2.2420    0.5493   -0.6285 N.2     1  UNL11      -0.0071
      6 N          -3.3100   -0.0582   -1.1125 N.am    1  UNL11      -0.0356
      7 C          -4.4882   -0.0946   -0.4583 C.2     1  UNL11       0.4383
      8 O          -5.4893   -0.6680   -0.9195 O.2     1  UNL11      -0.2116
      9 C          -4.5418    0.5463    0.7755 C.ar    1  UNL11       0.1004
     10 C          -5.6963    0.5647    1.5158 C.ar    1  UNL11      -0.0441
     11 C          -5.7271    1.2087    2.7397 C.ar    1  UNL11      -0.0608
     12 C          -4.6068    1.8497    3.2542 C.ar    1  UNL11      -0.0611
     13 C          -3.4649    1.8097    2.4815 C.ar    1  UNL11      -0.0518
     14 C          -3.4240    1.1792    1.2766 C.ar    1  UNL11       0.0194
     15 N           1.2916    1.0280    0.4038 N.am    1  UNL11      -0.3109
     16 C           1.5093    0.4503    1.7170 C.3     1  UNL11       0.0368
     17 C           0.7843    1.1601    2.7847 C.ar    1  UNL11      -0.0302
     18 C          -0.5799    1.2430    2.7602 C.ar    1  UNL11      -0.0544
     19 C          -1.2488    1.9219    3.7738 C.ar    1  UNL11      -0.0261
     20 C          -0.5758    2.5141    4.8034 C.ar    1  UNL11       0.1234
     21 F          -1.2186    3.1862    5.8093 F       1  UNL11      -0.2055
     22 C           0.8001    2.4346    4.8350 C.ar    1  UNL11      -0.0261
     23 C           1.4734    1.7519    3.8155 C.ar    1  UNL11      -0.0544
     24 H          -0.7266    1.5027    2.0643 H       1  UNL11       0.0424
     25 H          -1.2237    2.9286    1.1333 H       1  UNL11       0.0424
     26 H          -3.2979   -0.5532   -2.0472 H       1  UNL11       0.4829
     27 H          -6.5682    0.0828    1.1446 H       1  UNL11       0.0627
     28 H          -6.6455    1.2218    3.3261 H       1  UNL11       0.0618
     29 H          -4.6605    2.3454    4.2143 H       1  UNL11       0.0618
     30 H          -2.5795    2.2977    2.8552 H       1  UNL11       0.0624
     31 H           2.0272    0.9788   -0.3566 H       1  UNL11       0.1490
     32 H           1.2209   -0.6409    1.7023 H       1  UNL11       0.0512
     33 H           2.6183    0.4371    1.9241 H       1  UNL11       0.0512
     34 H          -1.1948    0.8018    1.9844 H       1  UNL11       0.0622
     35 H          -2.3352    1.9822    3.7453 H       1  UNL11       0.0646
     36 H           1.3706    2.8905    5.6327 H       1  UNL11       0.0646
     37 H           2.5711    1.6963    3.8522 H       1  UNL11       0.0622
@<TRIPOS>BOND
     1     1     2    2
     2     2     3    1
     3     2    15   am
     4     3     4    1
     5     3    24    1
     6     3    25    1
     7     4     5    2
     8     5     6    1
     9     6     7   am
    10     6    26    1
    11     7     8    2
    12     7     9    1
    13     9    10   ar
    14    10    11   ar
    15    10    27    1
    16    11    12   ar
    17    11    28    1
    18    12    13   ar
    19    12    29    1
    20    13    14   ar
    21    13    30    1
    22    14     4    1
    23    14     9   ar
    24    15    16    1
    25    15    31    1
    26    16    17    1
    27    16    32    1
    28    16    33    1
    29    17    18   ar
    30    18    19   ar
    31    18    34    1
    32    19    20   ar
    33    19    35    1
    34    20    21    1
    35    20    22   ar
    36    22    23   ar
    37    22    36    1
    38    23    17   ar
    39    23    37    1
@<TRIPOS>MOLECULE
*****
 37 39 0 0 0
SMALL
GASTEIGER

@<TRIPOS>ATOM
      1 O           0.2248    2.5859   -0.8193 O.2     1  UNL11      -0.2754
      2 C           0.0974    1.6852    0.0714 C.2     1  UNL11       0.2193
      3 C          -1.0135    1.8440    1.0476 C.3     1  UNL11       0.0725
      4 C          -2.2447    1.1817    0.5584 C.2     1  UNL11       0.1237
      5 N          -2.1563    0.1042   -0.2416 N.2     1  UNL11      -0.0071
      6 N          -3.2202   -0.5254   -0.7057 N.am    1  UNL11      -0.0356
      7 C          -4.4797   -0.1412   -0.4165 C.2     1  UNL11       0.4383
      8 O          -5.4764   -0.7383   -0.8566 O.2     1  UNL11      -0.2116
      9 C          -4.6238    0.9698    0.4085 C.ar    1  UNL11       0.1004
     10 C          -5.8649    1.4374    0.7584 C.ar    1  UNL11      -0.0441
     11 C          -5.9845    2.5445    1.5793 C.ar    1  UNL11      -0.0608
     12 C          -4.8690    3.2112    2.0707 C.ar    1  UNL11      -0.0611
     13 C          -3.6386    2.7118    1.6973 C.ar    1  UNL11      -0.0518
     14 C          -3.5099    1.6239    0.8906 C.ar    1  UNL11       0.0194
     15 N           0.9771    0.5931    0.1167 N.am    1  UNL11      -0.3109
     16 C           0.8471   -0.4559    1.1107 C.3     1  UNL11       0.0368
     17 C           0.2621    0.0203    2.3759 C.ar    1  UNL11      -0.0302
     18 C          -0.0969    1.3309    2.5242 C.ar    1  UNL11      -0.0544
     19 C          -0.6431    1.7654    3.7278 C.ar    1  UNL11      -0.0261
     20 C          -0.8332    0.9123    4.7764 C.ar    1  UNL11       0.1234
     21 F          -1.3696    1.3233    5.9681 F       1  UNL11      -0.2055
     22 C          -0.4736   -0.4109    4.6344 C.ar    1  UNL11      -0.0261
     23 C           0.0760   -0.8484    3.4239 C.ar    1  UNL11      -0.0544
     24 H          -0.7266    1.5027    2.0643 H       1  UNL11       0.0424
     25 H          -1.2237    2.9286    1.1333 H       1  UNL11       0.0424
     26 H          -3.1405   -1.3724   -1.3343 H       1  UNL11       0.4829
     27 H          -6.7349    0.9463    0.3951 H       1  UNL11       0.0627
     28 H          -6.9716    2.9140    1.8560 H       1  UNL11       0.0618
     29 H          -4.9933    4.0746    2.7107 H       1  UNL11       0.0618
     30 H          -2.7548    3.2080    2.0639 H       1  UNL11       0.0624
     31 H           1.7436    0.5778   -0.6141 H       1  UNL11       0.1490
     32 H           0.2342   -1.3040    0.6873 H       1  UNL11       0.0512
     33 H           1.8635   -0.9136    1.2849 H       1  UNL11       0.0512
     34 H           0.0156    2.0765    1.7456 H       1  UNL11       0.0622
     35 H          -0.9259    2.8109    3.8358 H       1  UNL11       0.0646
     36 H          -0.6073   -1.1187    5.4412 H       1  UNL11       0.0646
     37 H           0.3592   -1.9063    3.3237 H       1  UNL11       0.0622
@<TRIPOS>BOND
     1     1     2    2
     2     2     3    1
     3     2    15   am
     4     3     4    1
     5     3    24    1
     6     3    25    1
     7     4     5    2
     8     5     6    1
     9     6     7   am
    10     6    26    1
    11     7     8    2
    12     7     9    1
    13     9    10   ar
    14    10    11   ar
    15    10    27    1
    16    11    12   ar
    17    11    28    1
    18    12    13   ar
    19    12    29    1
    20    13    14   ar
    21    13    30    1
    22    14     4    1
    23    14     9   ar
    24    15    16    1
    25    15    31    1
    26    16    17    1
    27    16    32    1
    28    16    33    1
    29    17    18   ar
    30    18    19   ar
    31    18    34    1
    32    19    20   ar
    33    19    35    1
    34    20    21    1
    35    20    22   ar
    36    22    23   ar
    37    22    36    1
    38    23    17   ar
    39    23    37    1
@<TRIPOS>MOLECULE
*****
 37 39 0 0 0
SMALL
GASTEIGER

@<TRIPOS>ATOM
      1 O           0.2248    2.5859   -0.8193 O.2     1  UNL11      -0.2754
      2 C           0.0974    1.6852    0.0714 C.2     1  UNL11       0.2193
      3 C          -1.0135    1.8440    1.0476 C.3     1  UNL11       0.0725
      4 C          -2.2447    1.1817    0.5584 C.2     1  UNL11       0.1237
      5 N          -2.1563    0.1042   -0.2416 N.2     1  UNL11      -0.0071
      6 N          -3.2202   -0.5254   -0.7057 N.am    1  UNL11      -0.0356
      7 C          -4.4797   -0.1412   -0.4165 C.2     1  UNL11       0.4383
      8 O          -5.4764   -0.7383   -0.8566 O.2     1  UNL11      -0.2116
      9 C          -4.6238    0.9698    0.4085 C.ar    1  UNL11       0.1004
     10 C          -5.8649    1.4374    0.7584 C.ar    1  UNL11      -0.0441
     11 C          -5.9845    2.5445    1.5793 C.ar    1  UNL11      -0.0608
     12 C          -4.8690    3.2112    2.0707 C.ar    1  UNL11      -0.0611
     13 C          -3.6386    2.7118    1.6973 C.ar    1  UNL11      -0.0518
     14 C          -3.5099    1.6239    0.8906 C.ar    1  UNL11       0.0194
     15 N           0.9771    0.5931    0.1167 N.am    1  UNL11      -0.3109
     16 C           0.8471   -0.4559    1.1107 C.3     1  UNL11       0.0368
     17 C           1.3136   -1.7668    0.6274 C.ar    1  UNL11      -0.0302
     18 C           1.2473   -2.8676    1.4350 C.ar    1  UNL11      -0.0544
     19 C           1.6973   -4.0973    0.9647 C.ar    1  UNL11      -0.0261
     20 C           2.2087   -4.2386   -0.2930 C.ar    1  UNL11       0.1234
     21 F           2.6561   -5.4416   -0.7719 F       1  UNL11      -0.2055
     22 C           2.2788   -3.1329   -1.1134 C.ar    1  UNL11      -0.0261
     23 C           1.8263   -1.8957   -0.6407 C.ar    1  UNL11      -0.0544
     24 H          -0.7266    1.5027    2.0643 H       1  UNL11       0.0424
     25 H          -1.2237    2.9286    1.1333 H       1  UNL11       0.0424
     26 H          -3.1405   -1.3724   -1.3343 H       1  UNL11       0.4829
     27 H          -6.7349    0.9463    0.3951 H       1  UNL11       0.0627
     28 H          -6.9716    2.9140    1.8560 H       1  UNL11       0.0618
     29 H          -4.9933    4.0746    2.7107 H       1  UNL11       0.0618
     30 H          -2.7548    3.2080    2.0639 H       1  UNL11       0.0624
     31 H           1.7436    0.5778   -0.6141 H       1  UNL11       0.1490
     32 H           1.4031   -0.1600    2.0474 H       1  UNL11       0.0512
     33 H          -0.2313   -0.5087    1.4382 H       1  UNL11       0.0512
     34 H           0.8549   -2.8489    2.4452 H       1  UNL11       0.0622
     35 H           1.6400   -4.9678    1.6155 H       1  UNL11       0.0646
     36 H           2.6776   -3.2024   -2.1163 H       1  UNL11       0.0646
     37 H           1.8882   -1.0214   -1.3049 H       1  UNL11       0.0622
@<TRIPOS>BOND
     1     1     2    2
     2     2     3    1
     3     2    15   am
     4     3     4    1
     5     3    24    1
     6     3    25    1
     7     4     5    2
     8     5     6    1
     9     6     7   am
    10     6    26    1
    11     7     8    2
    12     7     9    1
    13     9    10   ar
    14    10    11   ar
    15    10    27    1
    16    11    12   ar
    17    11    28    1
    18    12    13   ar
    19    12    29    1
    20    13    14   ar
    21    13    30    1
    22    14     4    1
    23    14     9   ar
    24    15    16    1
    25    15    31    1
    26    16    17    1
    27    16    32    1
    28    16    33    1
    29    17    18   ar
    30    18    19   ar
    31    18    34    1
    32    19    20   ar
    33    19    35    1
    34    20    21    1
    35    20    22   ar
    36    22    23   ar
    37    22    36    1
    38    23    17   ar
    39    23    37    1
@<TRIPOS>MOLECULE
*****
 37 39 0 0 0
SMALL
GASTEIGER

@<TRIPOS>ATOM
      1 O           1.1462    1.0858    0.4733 O.2     1  UNL11      -0.2754
      2 C           0.0974    1.6852    0.0714 C.2     1  UNL11       0.2193
      3 C          -1.0135    1.8440    1.0476 C.3     1  UNL11       0.0725
      4 C          -2.2447    1.1817    0.5584 C.2     1  UNL11       0.1237
      5 N          -2.4747    1.0812   -0.7629 N.2     1  UNL11      -0.0071
      6 N          -3.5543    0.5005   -1.2540 N.am    1  UNL11      -0.0356
      7 C          -4.5125   -0.0382   -0.4736 C.2     1  UNL11       0.4383
      8 O          -5.5258   -0.5831   -0.9424 O.2     1  UNL11      -0.2116
      9 C          -4.3202    0.0407    0.9021 C.ar    1  UNL11       0.1004
     10 C          -5.2398   -0.4777    1.7779 C.ar    1  UNL11      -0.0441
     11 C          -5.0284   -0.3872    3.1420 C.ar    1  UNL11      -0.0608
     12 C          -3.8947    0.2225    3.6649 C.ar    1  UNL11      -0.0611
     13 C          -2.9931    0.7317    2.7536 C.ar    1  UNL11      -0.0518
     14 C          -3.1913    0.6479    1.4102 C.ar    1  UNL11       0.0194
     15 N           0.0087    2.1708   -1.2419 N.am    1  UNL11      -0.3109
     16 C          -1.1677    2.8708   -1.7232 C.3     1  UNL11       0.0368
     17 C          -1.8078    2.1998   -2.8676 C.ar    1  UNL11      -0.0302
     18 C          -2.2947    0.9286   -2.7428 C.ar    1  UNL11      -0.0544
     19 C          -2.8917    0.3074   -3.8352 C.ar    1  UNL11      -0.0261
     20 C          -3.0069    0.9365   -5.0412 C.ar    1  UNL11       0.1234
     21 F          -3.5917    0.3397   -6.1268 F       1  UNL11      -0.2055
     22 C          -2.5183    2.2186   -5.1748 C.ar    1  UNL11      -0.0261
     23 C          -1.9176    2.8439   -4.0761 C.ar    1  UNL11      -0.0544
     24 H          -0.7266    1.5027    2.0643 H       1  UNL11       0.0424
     25 H          -1.2237    2.9286    1.1333 H       1  UNL11       0.0424
     26 H          -3.7263    0.4262   -2.2951 H       1  UNL11       0.4829
     27 H          -6.1165   -0.9485    1.4041 H       1  UNL11       0.0627
     28 H          -5.7604   -0.8000    3.8357 H       1  UNL11       0.0618
     29 H          -3.7563    0.2787    4.7364 H       1  UNL11       0.0618
     30 H          -2.1034    1.2098    3.1298 H       1  UNL11       0.0624
     31 H           0.8478    1.9960   -1.8642 H       1  UNL11       0.1490
     32 H          -1.9045    2.9974   -0.8775 H       1  UNL11       0.0512
     33 H          -0.8733    3.9268   -1.9896 H       1  UNL11       0.0512
     34 H          -2.2486    0.3551   -1.8243 H       1  UNL11       0.0622
     35 H          -3.2764   -0.7049   -3.7255 H       1  UNL11       0.0646
     36 H          -2.5894    2.7516   -6.1132 H       1  UNL11       0.0646
     37 H          -1.5314    3.8666   -4.1961 H       1  UNL11       0.0622
@<TRIPOS>BOND
     1     1     2    2
     2     2     3    1
     3     2    15   am
     4     3     4    1
     5     3    24    1
     6     3    25    1
     7     4     5    2
     8     5     6    1
     9     6     7   am
    10     6    26    1
    11     7     8    2
    12     7     9    1
    13     9    10   ar
    14    10    11   ar
    15    10    27    1
    16    11    12   ar
    17    11    28    1
    18    12    13   ar
    19    12    29    1
    20    13    14   ar
    21    13    30    1
    22    14     4    1
    23    14     9   ar
    24    15    16    1
    25    15    31    1
    26    16    17    1
    27    16    32    1
    28    16    33    1
    29    17    18   ar
    30    18    19   ar
    31    18    34    1
    32    19    20   ar
    33    19    35    1
    34    20    21    1
    35    20    22   ar
    36    22    23   ar
    37    22    36    1
    38    23    17   ar
    39    23    37    1
@<TRIPOS>MOLECULE
*****
 37 39 0 0 0
SMALL
GASTEIGER

@<TRIPOS>ATOM
      1 O          -0.1511    1.0353   -0.9948 O.2     1  UNL11      -0.2754
      2 C           0.0974    1.6852    0.0714 C.2     1  UNL11       0.2193
      3 C          -1.0135    1.8440    1.0476 C.3     1  UNL11       0.0725
      4 C          -2.2447    1.1817    0.5584 C.2     1  UNL11       0.1237
      5 N          -3.3695    1.2248    1.2945 N.2     1  UNL11      -0.0071
      6 N          -4.4948    0.6531    0.9067 N.am    1  UNL11      -0.0356
      7 C          -4.6090   -0.0192   -0.2563 C.2     1  UNL11       0.4383
      8 O          -5.6710   -0.5548   -0.6152 O.2     1  UNL11      -0.2116
      9 C          -3.4715   -0.0921   -1.0541 C.ar    1  UNL11       0.1004
     10 C          -3.4883   -0.7549   -2.2548 C.ar    1  UNL11      -0.0441
     11 C          -2.3451   -0.8154   -3.0315 C.ar    1  UNL11      -0.0608
     12 C          -1.1581   -0.2160   -2.6289 C.ar    1  UNL11      -0.0611
     13 C          -1.1800    0.4411   -1.4163 C.ar    1  UNL11      -0.0518
     14 C          -2.2987    0.5066   -0.6449 C.ar    1  UNL11       0.0194
     15 N           1.3726    2.2232    0.3016 N.am    1  UNL11      -0.3109
     16 C           2.4548    2.0665   -0.6522 C.3     1  UNL11       0.0368
     17 C           3.6189    1.3605   -0.0899 C.ar    1  UNL11      -0.0302
     18 C           3.7148   -0.0001   -0.1797 C.ar    1  UNL11      -0.0544
     19 C           4.8184   -0.6519    0.3615 C.ar    1  UNL11      -0.0261
     20 C           5.8193    0.0346    0.9863 C.ar    1  UNL11       0.1234
     21 F           6.9127   -0.5911    1.5245 F       1  UNL11      -0.2055
     22 C           5.7297    1.4070    1.0807 C.ar    1  UNL11      -0.0261
     23 C           4.6196    2.0631    0.5365 C.ar    1  UNL11      -0.0544
     24 H          -0.7266    1.5027    2.0643 H       1  UNL11       0.0424
     25 H          -1.2237    2.9286    1.1333 H       1  UNL11       0.0424
     26 H          -5.3746    0.6926    1.4927 H       1  UNL11       0.4829
     27 H          -4.3834   -1.2233   -2.5858 H       1  UNL11       0.0627
     28 H          -2.3611   -1.3425   -3.9851 H       1  UNL11       0.0618
     29 H          -0.2797   -0.2799   -3.2572 H       1  UNL11       0.0618
     30 H          -0.2738    0.9167   -1.0781 H       1  UNL11       0.0624
     31 H           1.5025    2.7486    1.2120 H       1  UNL11       0.1490
     32 H           2.0748    1.5316   -1.5706 H       1  UNL11       0.0512
     33 H           2.7489    3.0872   -1.0325 H       1  UNL11       0.0512
     34 H           2.9699   -0.6246   -0.6592 H       1  UNL11       0.0622
     35 H           4.8854   -1.7355    0.2847 H       1  UNL11       0.0646
     36 H           6.5010    1.9878    1.5681 H       1  UNL11       0.0646
     37 H           4.5600    3.1581    0.6190 H       1  UNL11       0.0622
@<TRIPOS>BOND
     1     1     2    2
     2     2     3    1
     3     2    15   am
     4     3     4    1
     5     3    24    1
     6     3    25    1
     7     4     5    2
     8     5     6    1
     9     6     7   am
    10     6    26    1
    11     7     8    2
    12     7     9    1
    13     9    10   ar
    14    10    11   ar
    15    10    27    1
    16    11    12   ar
    17    11    28    1
    18    12    13   ar
    19    12    29    1
    20    13    14   ar
    21    13    30    1
    22    14     4    1
    23    14     9   ar
    24    15    16    1
    25    15    31    1
    26    16    17    1
    27    16    32    1
    28    16    33    1
    29    17    18   ar
    30    18    19   ar
    31    18    34    1
    32    19    20   ar
    33    19    35    1
    34    20    21    1
    35    20    22   ar
    36    22    23   ar
    37    22    36    1
    38    23    17   ar
    39    23    37    1
@<TRIPOS>MOLECULE
*****
 37 39 0 0 0
SMALL
GASTEIGER

@<TRIPOS>ATOM
      1 O          -0.2162    1.5868   -1.1586 O.2     1  UNL11      -0.2754
      2 C           0.0974    1.6852    0.0714 C.2     1  UNL11       0.2193
      3 C          -1.0135    1.8440    1.0476 C.3     1  UNL11       0.0725
      4 C          -2.2447    1.1817    0.5584 C.2     1  UNL11       0.1237
      5 N          -2.2482   -0.1426    0.3237 N.2     1  UNL11      -0.0071
      6 N          -3.3170   -0.7842   -0.1117 N.am    1  UNL11      -0.0356
      7 C          -4.4901   -0.1665   -0.3562 C.2     1  UNL11       0.4383
      8 O          -5.4920   -0.7764   -0.7658 O.2     1  UNL11      -0.2116
      9 C          -4.5371    1.2053   -0.1285 C.ar    1  UNL11       0.1004
     10 C          -5.6855    1.9220   -0.3491 C.ar    1  UNL11      -0.0441
     11 C          -5.7094    3.2856   -0.1166 C.ar    1  UNL11      -0.0608
     12 C          -4.5881    3.9664    0.3414 C.ar    1  UNL11      -0.0611
     13 C          -3.4525    3.2121    0.5516 C.ar    1  UNL11      -0.0518
     14 C          -3.4185    1.8709    0.3262 C.ar    1  UNL11       0.0194
     15 N           1.4409    1.6433    0.4736 N.am    1  UNL11      -0.3109
     16 C           1.8271    1.7379    1.8691 C.3     1  UNL11       0.0368
     17 C           3.2860    1.6892    2.0663 C.ar    1  UNL11      -0.0302
     18 C           3.8513    0.7005    2.8221 C.ar    1  UNL11      -0.0544
     19 C           5.2305    0.6723    3.0028 C.ar    1  UNL11      -0.0261
     20 C           6.0449    1.6131    2.4415 C.ar    1  UNL11       0.1234
     21 F           7.4045    1.6002    2.6091 F       1  UNL11      -0.2055
     22 C           5.4822    2.6134    1.6779 C.ar    1  UNL11      -0.0261
     23 C           4.0948    2.6421    1.4959 C.ar    1  UNL11      -0.0544
     24 H          -0.7266    1.5027    2.0643 H       1  UNL11       0.0424
     25 H          -1.2237    2.9286    1.1333 H       1  UNL11       0.0424
     26 H          -3.3100   -1.8263   -0.2932 H       1  UNL11       0.4829
     27 H          -6.5574    1.4257   -0.7006 H       1  UNL11       0.0627
     28 H          -6.6230    3.8528   -0.2925 H       1  UNL11       0.0618
     29 H          -4.6362    5.0333    0.5142 H       1  UNL11       0.0618
     30 H          -2.5670    3.7129    0.9078 H       1  UNL11       0.0624
     31 H           2.1586    1.5411   -0.2985 H       1  UNL11       0.1490
     32 H           1.3998    2.6820    2.3165 H       1  UNL11       0.0512
     33 H           1.3164    0.9095    2.4400 H       1  UNL11       0.0512
     34 H           3.2831   -0.0875    3.3028 H       1  UNL11       0.0622
     35 H           5.6709   -0.1193    3.6063 H       1  UNL11       0.0646
     36 H           6.0923    3.3779    1.2163 H       1  UNL11       0.0646
     37 H           3.6584    3.4457    0.8850 H       1  UNL11       0.0622
@<TRIPOS>BOND
     1     1     2    2
     2     2     3    1
     3     2    15   am
     4     3     4    1
     5     3    24    1
     6     3    25    1
     7     4     5    2
     8     5     6    1
     9     6     7   am
    10     6    26    1
    11     7     8    2
    12     7     9    1
    13     9    10   ar
    14    10    11   ar
    15    10    27    1
    16    11    12   ar
    17    11    28    1
    18    12    13   ar
    19    12    29    1
    20    13    14   ar
    21    13    30    1
    22    14     4    1
    23    14     9   ar
    24    15    16    1
    25    15    31    1
    26    16    17    1
    27    16    32    1
    28    16    33    1
    29    17    18   ar
    30    18    19   ar
    31    18    34    1
    32    19    20   ar
    33    19    35    1
    34    20    21    1
    35    20    22   ar
    36    22    23   ar
    37    22    36    1
    38    23    17   ar
    39    23    37    1
@<TRIPOS>MOLECULE
*****
 37 39 0 0 0
SMALL
GASTEIGER

@<TRIPOS>ATOM
      1 O           0.4527    0.4979   -0.2203 O.2     1  UNL11      -0.2754
      2 C           0.0974    1.6852    0.0714 C.2     1  UNL11       0.2193
      3 C          -1.0135    1.8440    1.0476 C.3     1  UNL11       0.0725
      4 C          -2.2447    1.1817    0.5584 C.2     1  UNL11       0.1237
      5 N          -3.1291    1.8705   -0.1847 N.2     1  UNL11      -0.0071
      6 N          -4.2416    1.3303   -0.6475 N.am    1  UNL11      -0.0356
      7 C          -4.5819    0.0468   -0.4140 C.2     1  UNL11       0.4383
      8 O          -5.6303   -0.4552   -0.8526 O.2     1  UNL11      -0.2116
      9 C          -3.6983   -0.7082    0.3509 C.ar    1  UNL11       0.1004
     10 C          -3.9575   -2.0230    0.6429 C.ar    1  UNL11      -0.0441
     11 C          -3.0652   -2.7546    1.4060 C.ar    1  UNL11      -0.0608
     12 C          -1.8931   -2.1918    1.8959 C.ar    1  UNL11      -0.0611
     13 C          -1.6669   -0.8679    1.5815 C.ar    1  UNL11      -0.0518
     14 C          -2.5379   -0.1396    0.8319 C.ar    1  UNL11       0.0194
     15 N           0.7380    2.7885   -0.5125 N.am    1  UNL11      -0.3109
     16 C           0.3647    4.1525   -0.1879 C.3     1  UNL11       0.0368
     17 C          -0.6835    4.6879   -1.0735 C.ar    1  UNL11      -0.0302
     18 C          -1.9113    4.0903   -1.1354 C.ar    1  UNL11      -0.0544
     19 C          -2.8884    4.6056   -1.9812 C.ar    1  UNL11      -0.0261
     20 C          -2.6548    5.7024   -2.7595 C.ar    1  UNL11       0.1234
     21 F          -3.6054    6.2228   -3.5976 F       1  UNL11      -0.2055
     22 C          -1.4190    6.3107   -2.7025 C.ar    1  UNL11      -0.0261
     23 C          -0.4358    5.7926   -1.8519 C.ar    1  UNL11      -0.0544
     24 H          -0.7266    1.5027    2.0643 H       1  UNL11       0.0424
     25 H          -1.2237    2.9286    1.1333 H       1  UNL11       0.0424
     26 H          -4.9311    1.8803   -1.2314 H       1  UNL11       0.4829
     27 H          -4.8479   -2.4776    0.2813 H       1  UNL11       0.0627
     28 H          -3.2733   -3.7991    1.6365 H       1  UNL11       0.0618
     29 H          -1.2139   -2.7884    2.4903 H       1  UNL11       0.0618
     30 H          -0.7652   -0.4043    1.9470 H       1  UNL11       0.0624
     31 H           1.5084    2.5705   -1.2059 H       1  UNL11       0.1490
     32 H           0.0363    4.2081    0.8906 H       1  UNL11       0.0512
     33 H           1.2902    4.7967   -0.2252 H       1  UNL11       0.0512
     34 H          -2.1852    3.2184   -0.5525 H       1  UNL11       0.0622
     35 H          -3.8629    4.1225   -2.0231 H       1  UNL11       0.0646
     36 H          -1.1936    7.1813   -3.3033 H       1  UNL11       0.0646
     37 H           0.5460    6.2868   -1.8161 H       1  UNL11       0.0622
@<TRIPOS>BOND
     1     1     2    2
     2     2     3    1
     3     2    15   am
     4     3     4    1
     5     3    24    1
     6     3    25    1
     7     4     5    2
     8     5     6    1
     9     6     7   am
    10     6    26    1
    11     7     8    2
    12     7     9    1
    13     9    10   ar
    14    10    11   ar
    15    10    27    1
    16    11    12   ar
    17    11    28    1
    18    12    13   ar
    19    12    29    1
    20    13    14   ar
    21    13    30    1
    22    14     4    1
    23    14     9   ar
    24    15    16    1
    25    15    31    1
    26    16    17    1
    27    16    32    1
    28    16    33    1
    29    17    18   ar
    30    18    19   ar
    31    18    34    1
    32    19    20   ar
    33    19    35    1
    34    20    21    1
    35    20    22   ar
    36    22    23   ar
    37    22    36    1
    38    23    17   ar
    39    23    37    1
