@<TRIPOS>MOLECULE
*****
 37 39 0 0 0
SMALL
GASTEIGER

@<TRIPOS>ATOM
      1 O           2.3249    0.0040    1.6146 O.2     1  UNL11      -0.2702
      2 C           1.1105    0.1700    1.7769 C.2     1  UNL11       0.2444
      3 N           0.3228    0.5965    0.6458 N.am    1  UNL11      -0.3055
      4 C          -1.0461    0.8549    0.6075 C.3     1  UNL11       0.0605
      5 C          -2.0147   -0.1880    0.2817 C.2     1  UNL11       0.1319
      6 N          -2.0600   -0.8931   -0.8493 N.2     1  UNL11      -0.0060
      7 N          -2.9936   -1.8176   -1.0839 N.am    1  UNL11      -0.0355
      8 C          -3.9772   -2.1174   -0.2017 C.2     1  UNL11       0.4383
      9 O          -4.8589   -2.9848   -0.4336 O.2     1  UNL11      -0.2116
     10 C          -3.9952   -1.4266    0.9960 C.ar    1  UNL11       0.1005
     11 C          -4.9750   -1.7060    1.9264 C.ar    1  UNL11      -0.0441
     12 C          -4.9705   -1.0122    3.1137 C.ar    1  UNL11      -0.0608
     13 C          -3.9937   -0.0614    3.3398 C.ar    1  UNL11      -0.0611
     14 C          -3.0023    0.2225    2.3947 C.ar    1  UNL11      -0.0517
     15 C          -3.0273   -0.4806    1.2235 C.ar    1  UNL11       0.0205
     16 C           0.4883   -0.0348    3.0605 C.ar    1  UNL11       0.0367
     17 C           1.0692   -0.9804    3.9146 C.ar    1  UNL11      -0.0491
     18 C           0.5410   -1.2773    5.1377 C.ar    1  UNL11      -0.0494
     19 C          -0.6042   -0.6243    5.5512 C.ar    1  UNL11       0.0549
     20 C          -1.1605   -0.9903    6.8848 C.3     1  UNL11       0.4174
     21 F          -0.4151   -1.9538    7.5086 F       1  UNL11      -0.1659
     22 F          -1.1402    0.1865    7.6333 F       1  UNL11      -0.1659
     23 F          -2.4654   -1.4415    6.7885 F       1  UNL11      -0.1659
     24 C          -1.2127    0.3205    4.7464 C.ar    1  UNL11      -0.0494
     25 C          -0.6357    0.5901    3.5027 C.ar    1  UNL11      -0.0491
     26 H           0.9159    0.7140   -0.2256 H       1  UNL11       0.1494
     27 H          -1.1909    1.7357   -0.1075 H       1  UNL11       0.0529
     28 H          -1.3297    1.3206    1.6043 H       1  UNL11       0.0529
     29 H          -3.0006   -2.3568   -1.9630 H       1  UNL11       0.4829
     30 H          -5.7458   -2.4361    1.7654 H       1  UNL11       0.0627
     31 H          -5.7273   -1.1947    3.8878 H       1  UNL11       0.0618
     32 H          -3.9311    0.5194    4.2590 H       1  UNL11       0.0618
     33 H          -2.2534    0.9769    2.5893 H       1  UNL11       0.0624
     34 H           1.9785   -1.5063    3.5953 H       1  UNL11       0.0625
     35 H           0.9885   -2.0095    5.7960 H       1  UNL11       0.0623
     36 H          -2.1263    0.8385    5.0724 H       1  UNL11       0.0623
     37 H          -1.1070    1.3147    2.8948 H       1  UNL11       0.0625
@<TRIPOS>BOND
     1     1     2    2
     2     2     3   am
     3     2    16    1
     4     3     4    1
     5     3    26    1
     6     4     5    1
     7     4    27    1
     8     4    28    1
     9     5     6    2
    10     6     7    1
    11     7     8   am
    12     7    29    1
    13     8     9    2
    14     8    10    1
    15    10    11   ar
    16    11    12   ar
    17    11    30    1
    18    12    13   ar
    19    12    31    1
    20    13    14   ar
    21    13    32    1
    22    14    15   ar
    23    14    33    1
    24    15     5    1
    25    15    10   ar
    26    16    17   ar
    27    17    18   ar
    28    17    34    1
    29    18    19   ar
    30    18    35    1
    31    19    20    1
    32    19    24   ar
    33    20    21    1
    34    20    22    1
    35    20    23    1
    36    24    25   ar
    37    24    36    1
    38    25    16   ar
    39    25    37    1
@<TRIPOS>MOLECULE
*****
 37 39 0 0 0
SMALL
GASTEIGER

@<TRIPOS>ATOM
      1 O           2.3249    0.0040    1.6146 O.2     1  UNL11      -0.2702
      2 C           1.1105    0.1700    1.7769 C.2     1  UNL11       0.2444
      3 N           0.3228    0.5965    0.6458 N.am    1  UNL11      -0.3055
      4 C          -1.0461    0.8549    0.6075 C.3     1  UNL11       0.0605
      5 C          -2.0147   -0.1880    0.2817 C.2     1  UNL11       0.1319
      6 N          -2.0600   -0.8931   -0.8493 N.2     1  UNL11      -0.0060
      7 N          -2.9936   -1.8176   -1.0839 N.am    1  UNL11      -0.0355
      8 C          -3.9772   -2.1174   -0.2017 C.2     1  UNL11       0.4383
      9 O          -4.8589   -2.9848   -0.4336 O.2     1  UNL11      -0.2116
     10 C          -3.9952   -1.4266    0.9960 C.ar    1  UNL11       0.1005
     11 C          -4.9750   -1.7060    1.9264 C.ar    1  UNL11      -0.0441
     12 C          -4.9705   -1.0122    3.1137 C.ar    1  UNL11      -0.0608
     13 C          -3.9937   -0.0614    3.3398 C.ar    1  UNL11      -0.0611
     14 C          -3.0023    0.2225    2.3947 C.ar    1  UNL11      -0.0517
     15 C          -3.0273   -0.4806    1.2235 C.ar    1  UNL11       0.0205
     16 C           0.4883   -0.0348    3.0605 C.ar    1  UNL11       0.0367
     17 C          -0.8437   -0.4668    3.0692 C.ar    1  UNL11      -0.0491
     18 C          -1.5388   -0.6581    4.2283 C.ar    1  UNL11      -0.0494
     19 C          -0.9103   -0.4200    5.4354 C.ar    1  UNL11       0.0549
     20 C          -1.7089   -0.6220    6.6777 C.3     1  UNL11       0.4174
     21 F          -2.9882   -1.0275    6.4091 F       1  UNL11      -0.1659
     22 F          -1.0370   -1.6105    7.3966 F       1  UNL11      -0.1659
     23 F          -1.7673    0.5307    7.4415 F       1  UNL11      -0.1659
     24 C           0.4048    0.0034    5.4799 C.ar    1  UNL11      -0.0494
     25 C           1.0749    0.1860    4.2675 C.ar    1  UNL11      -0.0491
     26 H           0.9159    0.7140   -0.2256 H       1  UNL11       0.1494
     27 H          -1.1909    1.7357   -0.1075 H       1  UNL11       0.0529
     28 H          -1.3297    1.3206    1.6043 H       1  UNL11       0.0529
     29 H          -3.0006   -2.3568   -1.9630 H       1  UNL11       0.4829
     30 H          -5.7458   -2.4361    1.7654 H       1  UNL11       0.0627
     31 H          -5.7273   -1.1947    3.8878 H       1  UNL11       0.0618
     32 H          -3.9311    0.5194    4.2590 H       1  UNL11       0.0618
     33 H          -2.2534    0.9769    2.5893 H       1  UNL11       0.0624
     34 H          -1.3532   -0.6575    2.1156 H       1  UNL11       0.0625
     35 H          -2.5683   -0.9893    4.2346 H       1  UNL11       0.0623
     36 H           0.9054    0.1969    6.4397 H       1  UNL11       0.0623
     37 H           2.0802    0.5085    4.3113 H       1  UNL11       0.0625
@<TRIPOS>BOND
     1     1     2    2
     2     2     3   am
     3     2    16    1
     4     3     4    1
     5     3    26    1
     6     4     5    1
     7     4    27    1
     8     4    28    1
     9     5     6    2
    10     6     7    1
    11     7     8   am
    12     7    29    1
    13     8     9    2
    14     8    10    1
    15    10    11   ar
    16    11    12   ar
    17    11    30    1
    18    12    13   ar
    19    12    31    1
    20    13    14   ar
    21    13    32    1
    22    14    15   ar
    23    14    33    1
    24    15     5    1
    25    15    10   ar
    26    16    17   ar
    27    17    18   ar
    28    17    34    1
    29    18    19   ar
    30    18    35    1
    31    19    20    1
    32    19    24   ar
    33    20    21    1
    34    20    22    1
    35    20    23    1
    36    24    25   ar
    37    24    36    1
    38    25    16   ar
    39    25    37    1
@<TRIPOS>MOLECULE
*****
 37 39 0 0 0
SMALL
GASTEIGER

@<TRIPOS>ATOM
      1 O           2.3249    0.0040    1.6146 O.2     1  UNL11      -0.2702
      2 C           1.1105    0.1700    1.7769 C.2     1  UNL11       0.2444
      3 N           0.3228    0.5965    0.6458 N.am    1  UNL11      -0.3055
      4 C          -1.0461    0.8549    0.6075 C.3     1  UNL11       0.0605
      5 C          -2.0147   -0.1880    0.2817 C.2     1  UNL11       0.1319
      6 N          -1.7337   -1.4591   -0.0073 N.2     1  UNL11      -0.0060
      7 N          -2.6761   -2.3515   -0.3186 N.am    1  UNL11      -0.0355
      8 C          -3.9951   -2.0468   -0.3743 C.2     1  UNL11       0.4383
      9 O          -4.8772   -2.8919   -0.6766 O.2     1  UNL11      -0.2116
     10 C          -4.3642   -0.7459   -0.0860 C.ar    1  UNL11       0.1005
     11 C          -5.6979   -0.3943   -0.1234 C.ar    1  UNL11      -0.0441
     12 C          -6.0438    0.9032    0.1733 C.ar    1  UNL11      -0.0608
     13 C          -5.0543    1.8118    0.4968 C.ar    1  UNL11      -0.0611
     14 C          -3.7023    1.4545    0.5320 C.ar    1  UNL11      -0.0517
     15 C          -3.3839    0.1596    0.2344 C.ar    1  UNL11       0.0205
     16 C           0.4883   -0.0348    3.0605 C.ar    1  UNL11       0.0367
     17 C          -0.8437   -0.4668    3.0692 C.ar    1  UNL11      -0.0491
     18 C          -1.5388   -0.6581    4.2283 C.ar    1  UNL11      -0.0494
     19 C          -0.9103   -0.4200    5.4354 C.ar    1  UNL11       0.0549
     20 C          -1.7089   -0.6220    6.6777 C.3     1  UNL11       0.4174
     21 F          -2.9882   -1.0275    6.4091 F       1  UNL11      -0.1659
     22 F          -1.0370   -1.6105    7.3966 F       1  UNL11      -0.1659
     23 F          -1.7673    0.5307    7.4415 F       1  UNL11      -0.1659
     24 C           0.4048    0.0034    5.4799 C.ar    1  UNL11      -0.0494
     25 C           1.0749    0.1860    4.2675 C.ar    1  UNL11      -0.0491
     26 H           0.9159    0.7140   -0.2256 H       1  UNL11       0.1494
     27 H          -1.1909    1.7357   -0.1075 H       1  UNL11       0.0529
     28 H          -1.3297    1.3206    1.6043 H       1  UNL11       0.0529
     29 H          -2.4335   -3.3318   -0.5282 H       1  UNL11       0.4829
     30 H          -6.4796   -1.0845   -0.3792 H       1  UNL11       0.0627
     31 H          -7.0898    1.2361    0.1577 H       1  UNL11       0.0618
     32 H          -5.2606    2.8518    0.7455 H       1  UNL11       0.0618
     33 H          -2.9444    2.1843    0.7788 H       1  UNL11       0.0624
     34 H          -1.3532   -0.6575    2.1156 H       1  UNL11       0.0625
     35 H          -2.5683   -0.9893    4.2346 H       1  UNL11       0.0623
     36 H           0.9054    0.1969    6.4397 H       1  UNL11       0.0623
     37 H           2.0802    0.5085    4.3113 H       1  UNL11       0.0625
@<TRIPOS>BOND
     1     1     2    2
     2     2     3   am
     3     2    16    1
     4     3     4    1
     5     3    26    1
     6     4     5    1
     7     4    27    1
     8     4    28    1
     9     5     6    2
    10     6     7    1
    11     7     8   am
    12     7    29    1
    13     8     9    2
    14     8    10    1
    15    10    11   ar
    16    11    12   ar
    17    11    30    1
    18    12    13   ar
    19    12    31    1
    20    13    14   ar
    21    13    32    1
    22    14    15   ar
    23    14    33    1
    24    15     5    1
    25    15    10   ar
    26    16    17   ar
    27    17    18   ar
    28    17    34    1
    29    18    19   ar
    30    18    35    1
    31    19    20    1
    32    19    24   ar
    33    20    21    1
    34    20    22    1
    35    20    23    1
    36    24    25   ar
    37    24    36    1
    38    25    16   ar
    39    25    37    1
@<TRIPOS>MOLECULE
*****
 37 39 0 0 0
SMALL
GASTEIGER

@<TRIPOS>ATOM
      1 O           2.4543    0.4201   -0.2047 O.2     1  UNL11      -0.2702
      2 C           1.2741    0.7086   -0.4333 C.2     1  UNL11       0.2444
      3 N           0.3228    0.5965    0.6458 N.am    1  UNL11      -0.3055
      4 C          -1.0461    0.8549    0.6075 C.3     1  UNL11       0.0605
      5 C          -2.0147   -0.1880    0.2817 C.2     1  UNL11       0.1319
      6 N          -1.8770   -1.4921    0.5240 N.2     1  UNL11      -0.0060
      7 N          -2.8002   -2.3903    0.1744 N.am    1  UNL11      -0.0355
      8 C          -3.9513   -2.0608   -0.4595 C.2     1  UNL11       0.4383
      9 O          -4.8135   -2.9146   -0.7933 O.2     1  UNL11      -0.2116
     10 C          -4.1654   -0.7249   -0.7445 C.ar    1  UNL11       0.1005
     11 C          -5.3282   -0.3443   -1.3823 C.ar    1  UNL11      -0.0441
     12 C          -5.5241    0.9902   -1.6501 C.ar    1  UNL11      -0.0608
     13 C          -4.5585    1.9056   -1.2773 C.ar    1  UNL11      -0.0611
     14 C          -3.3790    1.5181   -0.6328 C.ar    1  UNL11      -0.0517
     15 C          -3.2078    0.1870   -0.3768 C.ar    1  UNL11       0.0205
     16 C           0.8423    1.1286   -1.7424 C.ar    1  UNL11       0.0367
     17 C          -0.2384    2.0166   -1.8103 C.ar    1  UNL11      -0.0491
     18 C          -0.7498    2.4503   -2.9993 C.ar    1  UNL11      -0.0494
     19 C          -0.1842    2.0017   -4.1773 C.ar    1  UNL11       0.0549
     20 C          -0.7833    2.4834   -5.4545 C.3     1  UNL11       0.4174
     21 F          -1.8402    3.3269   -5.2433 F       1  UNL11      -0.1659
     22 F           0.2416    3.1603   -6.1154 F       1  UNL11      -0.1659
     23 F          -1.2140    1.4328   -6.2457 F       1  UNL11      -0.1659
     24 C           0.8869    1.1281   -4.1631 C.ar    1  UNL11      -0.0494
     25 C           1.3752    0.7115   -2.9221 C.ar    1  UNL11      -0.0491
     26 H           0.7824    0.2692    1.5438 H       1  UNL11       0.1494
     27 H          -1.1909    1.7357   -0.1075 H       1  UNL11       0.0529
     28 H          -1.3297    1.3206    1.6043 H       1  UNL11       0.0529
     29 H          -2.6743   -3.3926    0.3825 H       1  UNL11       0.4829
     30 H          -6.0862   -1.0418   -1.6855 H       1  UNL11       0.0627
     31 H          -6.4309    1.3468   -2.1559 H       1  UNL11       0.0618
     32 H          -4.6535    2.9757   -1.4559 H       1  UNL11       0.0618
     33 H          -2.6332    2.2506   -0.3585 H       1  UNL11       0.0624
     34 H          -0.6964    2.3780   -0.8804 H       1  UNL11       0.0625
     35 H          -1.5861    3.1341   -3.0514 H       1  UNL11       0.0623
     36 H           1.3359    0.7672   -5.0999 H       1  UNL11       0.0623
     37 H           2.1950    0.0447   -2.9210 H       1  UNL11       0.0625
@<TRIPOS>BOND
     1     1     2    2
     2     2     3   am
     3     2    16    1
     4     3     4    1
     5     3    26    1
     6     4     5    1
     7     4    27    1
     8     4    28    1
     9     5     6    2
    10     6     7    1
    11     7     8   am
    12     7    29    1
    13     8     9    2
    14     8    10    1
    15    10    11   ar
    16    11    12   ar
    17    11    30    1
    18    12    13   ar
    19    12    31    1
    20    13    14   ar
    21    13    32    1
    22    14    15   ar
    23    14    33    1
    24    15     5    1
    25    15    10   ar
    26    16    17   ar
    27    17    18   ar
    28    17    34    1
    29    18    19   ar
    30    18    35    1
    31    19    20    1
    32    19    24   ar
    33    20    21    1
    34    20    22    1
    35    20    23    1
    36    24    25   ar
    37    24    36    1
    38    25    16   ar
    39    25    37    1
@<TRIPOS>MOLECULE
*****
 37 39 0 0 0
SMALL
GASTEIGER

@<TRIPOS>ATOM
      1 O           2.3653   -0.0501   -0.1956 O.2     1  UNL11      -0.2702
      2 C           1.1657    0.1352   -0.4305 C.2     1  UNL11       0.2444
      3 N           0.3228    0.5965    0.6458 N.am    1  UNL11      -0.3055
      4 C          -1.0461    0.8549    0.6075 C.3     1  UNL11       0.0605
      5 C          -2.0147   -0.1880    0.2817 C.2     1  UNL11       0.1319
      6 N          -3.2675   -0.2655    0.7319 N.2     1  UNL11      -0.0060
      7 N          -4.0887   -1.2659    0.4058 N.am    1  UNL11      -0.0355
      8 C          -3.7237   -2.2900   -0.4027 C.2     1  UNL11       0.4383
      9 O          -4.5012   -3.2341   -0.6991 O.2     1  UNL11      -0.2116
     10 C          -2.4374   -2.2782   -0.9096 C.ar    1  UNL11       0.1005
     11 C          -2.0266   -3.2979   -1.7434 C.ar    1  UNL11      -0.0441
     12 C          -0.7455   -3.2632   -2.2418 C.ar    1  UNL11      -0.0608
     13 C           0.0888   -2.2174   -1.8958 C.ar    1  UNL11      -0.0611
     14 C          -0.3282   -1.1854   -1.0485 C.ar    1  UNL11      -0.0517
     15 C          -1.6056   -1.2417   -0.5670 C.ar    1  UNL11       0.0205
     16 C           0.6070   -0.1169   -1.7347 C.ar    1  UNL11       0.0367
     17 C           1.4765   -0.5813   -2.7294 C.ar    1  UNL11      -0.0491
     18 C           1.0594   -0.8186   -4.0073 C.ar    1  UNL11      -0.0494
     19 C          -0.2644   -0.5958   -4.3340 C.ar    1  UNL11       0.0549
     20 C          -0.6763   -0.8484   -5.7441 C.3     1  UNL11       0.4174
     21 F           0.3677   -1.2780   -6.5180 F       1  UNL11      -0.1659
     22 F          -1.6566   -1.8382   -5.6749 F       1  UNL11      -0.1659
     23 F          -1.2175    0.2829   -6.3296 F       1  UNL11      -0.1659
     24 C          -1.1629   -0.1418   -3.3866 C.ar    1  UNL11      -0.0494
     25 C          -0.6891    0.0875   -2.0924 C.ar    1  UNL11      -0.0491
     26 H           0.8692    0.7291    1.5451 H       1  UNL11       0.1494
     27 H          -1.1909    1.7357   -0.1075 H       1  UNL11       0.0529
     28 H          -1.3297    1.3206    1.6043 H       1  UNL11       0.0529
     29 H          -5.0571   -1.2973    0.7593 H       1  UNL11       0.4829
     30 H          -2.6582   -4.1218   -2.0177 H       1  UNL11       0.0627
     31 H          -0.3677   -4.0493   -2.9086 H       1  UNL11       0.0618
     32 H           1.1117   -2.1281   -2.2586 H       1  UNL11       0.0618
     33 H           0.3445   -0.3821   -0.7839 H       1  UNL11       0.0624
     34 H           2.5308   -0.7601   -2.4810 H       1  UNL11       0.0625
     35 H           1.7318   -1.1747   -4.7759 H       1  UNL11       0.0623
     36 H          -2.2161    0.0395   -3.6460 H       1  UNL11       0.0623
     37 H          -1.3833    0.4331   -1.3745 H       1  UNL11       0.0625
@<TRIPOS>BOND
     1     1     2    2
     2     2     3   am
     3     2    16    1
     4     3     4    1
     5     3    26    1
     6     4     5    1
     7     4    27    1
     8     4    28    1
     9     5     6    2
    10     6     7    1
    11     7     8   am
    12     7    29    1
    13     8     9    2
    14     8    10    1
    15    10    11   ar
    16    11    12   ar
    17    11    30    1
    18    12    13   ar
    19    12    31    1
    20    13    14   ar
    21    13    32    1
    22    14    15   ar
    23    14    33    1
    24    15     5    1
    25    15    10   ar
    26    16    17   ar
    27    17    18   ar
    28    17    34    1
    29    18    19   ar
    30    18    35    1
    31    19    20    1
    32    19    24   ar
    33    20    21    1
    34    20    22    1
    35    20    23    1
    36    24    25   ar
    37    24    36    1
    38    25    16   ar
    39    25    37    1
@<TRIPOS>MOLECULE
*****
 37 39 0 0 0
SMALL
GASTEIGER

@<TRIPOS>ATOM
      1 O           2.4543    0.4201   -0.2047 O.2     1  UNL11      -0.2702
      2 C           1.2741    0.7086   -0.4333 C.2     1  UNL11       0.2444
      3 N           0.3228    0.5965    0.6458 N.am    1  UNL11      -0.3055
      4 C          -1.0461    0.8549    0.6075 C.3     1  UNL11       0.0605
      5 C          -2.0147   -0.1880    0.2817 C.2     1  UNL11       0.1319
      6 N          -3.1895   -0.0084   -0.3232 N.2     1  UNL11      -0.0060
      7 N          -4.0341   -1.0126   -0.5672 N.am    1  UNL11      -0.0355
      8 C          -3.7781   -2.2968   -0.2194 C.2     1  UNL11       0.4383
      9 O          -4.5832   -3.2371   -0.4456 O.2     1  UNL11      -0.2116
     10 C          -2.5770   -2.5615    0.4124 C.ar    1  UNL11       0.1005
     11 C          -2.2725   -3.8569    0.7771 C.ar    1  UNL11      -0.0441
     12 C          -1.0698   -4.0991    1.3982 C.ar    1  UNL11      -0.0608
     13 C          -0.2070   -3.0470    1.6391 C.ar    1  UNL11      -0.0611
     14 C          -0.5179   -1.7338    1.2709 C.ar    1  UNL11      -0.0517
     15 C          -1.7181   -1.5188    0.6545 C.ar    1  UNL11       0.0205
     16 C           0.8423    1.1286   -1.7424 C.ar    1  UNL11       0.0367
     17 C          -0.5115    1.4493   -1.9023 C.ar    1  UNL11      -0.0491
     18 C          -1.0327    1.8246   -3.1067 C.ar    1  UNL11      -0.0494
     19 C          -0.2000    1.8928   -4.2071 C.ar    1  UNL11       0.0549
     20 C          -0.8110    2.2880   -5.5080 C.3     1  UNL11       0.4174
     21 F          -2.1536    2.5290   -5.3960 F       1  UNL11      -0.1659
     22 F          -0.1484    3.4535   -5.8927 F       1  UNL11      -0.1659
     23 F          -0.6204    1.3193   -6.4779 F       1  UNL11      -0.1659
     24 C           1.1446    1.5904   -4.0998 C.ar    1  UNL11      -0.0494
     25 C           1.6319    1.2106   -2.8467 C.ar    1  UNL11      -0.0491
     26 H           0.7824    0.2692    1.5438 H       1  UNL11       0.1494
     27 H          -1.1909    1.7357   -0.1075 H       1  UNL11       0.0529
     28 H          -1.3297    1.3206    1.6043 H       1  UNL11       0.0529
     29 H          -4.9327   -0.8488   -1.0461 H       1  UNL11       0.4829
     30 H          -2.9331   -4.6856    0.6043 H       1  UNL11       0.0627
     31 H          -0.7783   -5.1107    1.7097 H       1  UNL11       0.0618
     32 H           0.7611   -3.1710    2.1225 H       1  UNL11       0.0618
     33 H           0.1684   -0.9250    1.4776 H       1  UNL11       0.0624
     34 H          -1.1824    1.3968   -1.0349 H       1  UNL11       0.0625
     35 H          -2.0788    2.0697   -3.2304 H       1  UNL11       0.0623
     36 H           1.8080    1.6406   -4.9754 H       1  UNL11       0.0623
     37 H           2.6612    0.9825   -2.7739 H       1  UNL11       0.0625
@<TRIPOS>BOND
     1     1     2    2
     2     2     3   am
     3     2    16    1
     4     3     4    1
     5     3    26    1
     6     4     5    1
     7     4    27    1
     8     4    28    1
     9     5     6    2
    10     6     7    1
    11     7     8   am
    12     7    29    1
    13     8     9    2
    14     8    10    1
    15    10    11   ar
    16    11    12   ar
    17    11    30    1
    18    12    13   ar
    19    12    31    1
    20    13    14   ar
    21    13    32    1
    22    14    15   ar
    23    14    33    1
    24    15     5    1
    25    15    10   ar
    26    16    17   ar
    27    17    18   ar
    28    17    34    1
    29    18    19   ar
    30    18    35    1
    31    19    20    1
    32    19    24   ar
    33    20    21    1
    34    20    22    1
    35    20    23    1
    36    24    25   ar
    37    24    36    1
    38    25    16   ar
    39    25    37    1
@<TRIPOS>MOLECULE
*****
 37 39 0 0 0
SMALL
GASTEIGER

@<TRIPOS>ATOM
      1 O           2.2149   -0.6745    0.9655 O.2     1  UNL11      -0.2702
      2 C           0.9790   -0.6460    0.9737 C.2     1  UNL11       0.2444
      3 N           0.3228    0.5965    0.6458 N.am    1  UNL11      -0.3055
      4 C          -1.0461    0.8549    0.6075 C.3     1  UNL11       0.0605
      5 C          -2.0147   -0.1880    0.2817 C.2     1  UNL11       0.1319
      6 N          -2.8704   -0.1742   -0.7410 N.2     1  UNL11      -0.0060
      7 N          -3.7448   -1.1584   -0.9609 N.am    1  UNL11      -0.0355
      8 C          -3.8450   -2.2512   -0.1663 C.2     1  UNL11       0.4383
      9 O          -4.6777   -3.1713   -0.3755 O.2     1  UNL11      -0.2116
     10 C          -2.9886   -2.3365    0.9159 C.ar    1  UNL11       0.1005
     11 C          -3.0516   -3.4363    1.7467 C.ar    1  UNL11      -0.0441
     12 C          -2.1862   -3.5043    2.8132 C.ar    1  UNL11      -0.0608
     13 C          -1.2857   -2.4774    3.0225 C.ar    1  UNL11      -0.0611
     14 C          -1.2245   -1.3618    2.1807 C.ar    1  UNL11      -0.0517
     15 C          -2.0938   -1.3177    1.1276 C.ar    1  UNL11       0.0205
     16 C           0.2020   -1.8098    1.3181 C.ar    1  UNL11       0.0367
     17 C           0.7724   -2.7236    2.2129 C.ar    1  UNL11      -0.0491
     18 C           0.1381   -3.8753    2.5793 C.ar    1  UNL11      -0.0494
     19 C          -1.1091   -4.1519    2.0531 C.ar    1  UNL11       0.0549
     20 C          -1.7604   -5.4285    2.4631 C.3     1  UNL11       0.4174
     21 F          -0.9844   -6.1489    3.3302 F       1  UNL11      -0.1659
     22 F          -2.9514   -5.0564    3.0863 F       1  UNL11      -0.1659
     23 F          -2.0526   -6.2273    1.3713 F       1  UNL11      -0.1659
     24 C          -1.7163   -3.2794    1.1695 C.ar    1  UNL11      -0.0494
     25 C          -1.0279   -2.1138    0.8236 C.ar    1  UNL11      -0.0491
     26 H           1.0204    1.3638    0.4235 H       1  UNL11       0.1494
     27 H          -1.1909    1.7357   -0.1075 H       1  UNL11       0.0529
     28 H          -1.3297    1.3206    1.6043 H       1  UNL11       0.0529
     29 H          -4.3894   -1.1287   -1.7654 H       1  UNL11       0.4829
     30 H          -3.7489   -4.2402    1.6039 H       1  UNL11       0.0627
     31 H          -2.1945   -4.3564    3.5055 H       1  UNL11       0.0618
     32 H          -0.5714   -2.4715    3.8446 H       1  UNL11       0.0618
     33 H          -0.5181   -0.5659    2.3689 H       1  UNL11       0.0624
     34 H           1.7638   -2.5145    2.6357 H       1  UNL11       0.0625
     35 H           0.5801   -4.5821    3.2684 H       1  UNL11       0.0623
     36 H          -2.7074   -3.4998    0.7470 H       1  UNL11       0.0623
     37 H          -1.5003   -1.4522    0.1486 H       1  UNL11       0.0625
@<TRIPOS>BOND
     1     1     2    2
     2     2     3   am
     3     2    16    1
     4     3     4    1
     5     3    26    1
     6     4     5    1
     7     4    27    1
     8     4    28    1
     9     5     6    2
    10     6     7    1
    11     7     8   am
    12     7    29    1
    13     8     9    2
    14     8    10    1
    15    10    11   ar
    16    11    12   ar
    17    11    30    1
    18    12    13   ar
    19    12    31    1
    20    13    14   ar
    21    13    32    1
    22    14    15   ar
    23    14    33    1
    24    15     5    1
    25    15    10   ar
    26    16    17   ar
    27    17    18   ar
    28    17    34    1
    29    18    19   ar
    30    18    35    1
    31    19    20    1
    32    19    24   ar
    33    20    21    1
    34    20    22    1
    35    20    23    1
    36    24    25   ar
    37    24    36    1
    38    25    16   ar
    39    25    37    1
@<TRIPOS>MOLECULE
*****
 37 39 0 0 0
SMALL
GASTEIGER

@<TRIPOS>ATOM
      1 O           2.3249    0.0040    1.6146 O.2     1  UNL11      -0.2702
      2 C           1.1105    0.1700    1.7769 C.2     1  UNL11       0.2444
      3 N           0.3228    0.5965    0.6458 N.am    1  UNL11      -0.3055
      4 C          -1.0461    0.8549    0.6075 C.3     1  UNL11       0.0605
      5 C          -2.0147   -0.1880    0.2817 C.2     1  UNL11       0.1319
      6 N          -1.7337   -1.4591   -0.0073 N.2     1  UNL11      -0.0060
      7 N          -2.6761   -2.3515   -0.3186 N.am    1  UNL11      -0.0355
      8 C          -3.9951   -2.0468   -0.3743 C.2     1  UNL11       0.4383
      9 O          -4.8772   -2.8919   -0.6766 O.2     1  UNL11      -0.2116
     10 C          -4.3642   -0.7459   -0.0860 C.ar    1  UNL11       0.1005
     11 C          -5.6979   -0.3943   -0.1234 C.ar    1  UNL11      -0.0441
     12 C          -6.0438    0.9032    0.1733 C.ar    1  UNL11      -0.0608
     13 C          -5.0543    1.8118    0.4968 C.ar    1  UNL11      -0.0611
     14 C          -3.7023    1.4545    0.5320 C.ar    1  UNL11      -0.0517
     15 C          -3.3839    0.1596    0.2344 C.ar    1  UNL11       0.0205
     16 C           0.4883   -0.0348    3.0605 C.ar    1  UNL11       0.0367
     17 C           1.2686    0.1995    4.1995 C.ar    1  UNL11      -0.0491
     18 C           0.7895    0.0029    5.4624 C.ar    1  UNL11      -0.0494
     19 C          -0.5086   -0.4407    5.6269 C.ar    1  UNL11       0.0549
     20 C          -0.9881   -0.6615    7.0209 C.3     1  UNL11       0.4174
     21 F          -0.0241   -0.3768    7.9498 F       1  UNL11      -0.1659
     22 F          -2.0741    0.1987    7.1825 F       1  UNL11      -0.1659
     23 F          -1.4115   -1.9646    7.2159 F       1  UNL11      -0.1659
     24 C          -1.3202   -0.6822    4.5343 C.ar    1  UNL11      -0.0494
     25 C          -0.7853   -0.4673    3.2615 C.ar    1  UNL11      -0.0491
     26 H           0.9159    0.7140   -0.2256 H       1  UNL11       0.1494
     27 H          -1.1909    1.7357   -0.1075 H       1  UNL11       0.0529
     28 H          -1.3297    1.3206    1.6043 H       1  UNL11       0.0529
     29 H          -2.4335   -3.3318   -0.5282 H       1  UNL11       0.4829
     30 H          -6.4796   -1.0845   -0.3792 H       1  UNL11       0.0627
     31 H          -7.0898    1.2361    0.1577 H       1  UNL11       0.0618
     32 H          -5.2606    2.8518    0.7455 H       1  UNL11       0.0618
     33 H          -2.9444    2.1843    0.7788 H       1  UNL11       0.0624
     34 H           2.3019    0.5507    4.0802 H       1  UNL11       0.0625
     35 H           1.3933    0.1815    6.3418 H       1  UNL11       0.0623
     36 H          -2.3524   -1.0388    4.6633 H       1  UNL11       0.0623
     37 H          -1.4134   -0.6532    2.4323 H       1  UNL11       0.0625
@<TRIPOS>BOND
     1     1     2    2
     2     2     3   am
     3     2    16    1
     4     3     4    1
     5     3    26    1
     6     4     5    1
     7     4    27    1
     8     4    28    1
     9     5     6    2
    10     6     7    1
    11     7     8   am
    12     7    29    1
    13     8     9    2
    14     8    10    1
    15    10    11   ar
    16    11    12   ar
    17    11    30    1
    18    12    13   ar
    19    12    31    1
    20    13    14   ar
    21    13    32    1
    22    14    15   ar
    23    14    33    1
    24    15     5    1
    25    15    10   ar
    26    16    17   ar
    27    17    18   ar
    28    17    34    1
    29    18    19   ar
    30    18    35    1
    31    19    20    1
    32    19    24   ar
    33    20    21    1
    34    20    22    1
    35    20    23    1
    36    24    25   ar
    37    24    36    1
    38    25    16   ar
    39    25    37    1
@<TRIPOS>MOLECULE
*****
 37 39 0 0 0
SMALL
GASTEIGER

@<TRIPOS>ATOM
      1 O           2.2790   -0.4687    0.0655 O.2     1  UNL11      -0.2702
      2 C           1.0599   -0.3796   -0.1196 C.2     1  UNL11       0.2444
      3 N           0.3228    0.5965    0.6458 N.am    1  UNL11      -0.3055
      4 C          -1.0461    0.8549    0.6075 C.3     1  UNL11       0.0605
      5 C          -2.0147   -0.1880    0.2817 C.2     1  UNL11       0.1319
      6 N          -2.8704   -0.1742   -0.7410 N.2     1  UNL11      -0.0060
      7 N          -3.7448   -1.1584   -0.9609 N.am    1  UNL11      -0.0355
      8 C          -3.8450   -2.2512   -0.1663 C.2     1  UNL11       0.4383
      9 O          -4.6777   -3.1713   -0.3755 O.2     1  UNL11      -0.2116
     10 C          -2.9886   -2.3365    0.9159 C.ar    1  UNL11       0.1005
     11 C          -3.0516   -3.4363    1.7467 C.ar    1  UNL11      -0.0441
     12 C          -2.1862   -3.5043    2.8132 C.ar    1  UNL11      -0.0608
     13 C          -1.2857   -2.4774    3.0225 C.ar    1  UNL11      -0.0611
     14 C          -1.2245   -1.3618    2.1807 C.ar    1  UNL11      -0.0517
     15 C          -2.0938   -1.3177    1.1276 C.ar    1  UNL11       0.0205
     16 C           0.3771   -1.2343   -1.0577 C.ar    1  UNL11       0.0367
     17 C           0.9099   -2.5116   -1.2715 C.ar    1  UNL11      -0.0491
     18 C           0.3628   -3.3879   -2.1636 C.ar    1  UNL11      -0.0494
     19 C          -0.7548   -3.0064   -2.8807 C.ar    1  UNL11       0.0549
     20 C          -1.3109   -3.9843   -3.8586 C.3     1  UNL11       0.4174
     21 F          -0.5938   -5.1497   -3.8882 F       1  UNL11      -0.1659
     22 F          -2.6145   -4.2379   -3.4324 F       1  UNL11      -0.1659
     23 F          -1.3484   -3.4617   -5.1396 F       1  UNL11      -0.1659
     24 C          -1.3208   -1.7579   -2.7023 C.ar    1  UNL11      -0.0494
     25 C          -0.7251   -0.8952   -1.7787 C.ar    1  UNL11      -0.0491
     26 H           0.9544    1.1438    1.2988 H       1  UNL11       0.1494
     27 H          -1.1909    1.7357   -0.1075 H       1  UNL11       0.0529
     28 H          -1.3297    1.3206    1.6043 H       1  UNL11       0.0529
     29 H          -4.3894   -1.1287   -1.7654 H       1  UNL11       0.4829
     30 H          -3.7489   -4.2402    1.6039 H       1  UNL11       0.0627
     31 H          -2.1945   -4.3564    3.5055 H       1  UNL11       0.0618
     32 H          -0.5714   -2.4715    3.8446 H       1  UNL11       0.0618
     33 H          -0.5181   -0.5659    2.3689 H       1  UNL11       0.0624
     34 H           1.7988   -2.8244   -0.7082 H       1  UNL11       0.0625
     35 H           0.7761   -4.3734   -2.3303 H       1  UNL11       0.0623
     36 H          -2.2081   -1.4513   -3.2749 H       1  UNL11       0.0623
     37 H          -1.1653    0.0565   -1.6481 H       1  UNL11       0.0625
@<TRIPOS>BOND
     1     1     2    2
     2     2     3   am
     3     2    16    1
     4     3     4    1
     5     3    26    1
     6     4     5    1
     7     4    27    1
     8     4    28    1
     9     5     6    2
    10     6     7    1
    11     7     8   am
    12     7    29    1
    13     8     9    2
    14     8    10    1
    15    10    11   ar
    16    11    12   ar
    17    11    30    1
    18    12    13   ar
    19    12    31    1
    20    13    14   ar
    21    13    32    1
    22    14    15   ar
    23    14    33    1
    24    15     5    1
    25    15    10   ar
    26    16    17   ar
    27    17    18   ar
    28    17    34    1
    29    18    19   ar
    30    18    35    1
    31    19    20    1
    32    19    24   ar
    33    20    21    1
    34    20    22    1
    35    20    23    1
    36    24    25   ar
    37    24    36    1
    38    25    16   ar
    39    25    37    1
@<TRIPOS>MOLECULE
*****
 37 39 0 0 0
SMALL
GASTEIGER

@<TRIPOS>ATOM
      1 O           2.4543    0.4201   -0.2047 O.2     1  UNL11      -0.2702
      2 C           1.2741    0.7086   -0.4333 C.2     1  UNL11       0.2444
      3 N           0.3228    0.5965    0.6458 N.am    1  UNL11      -0.3055
      4 C          -1.0461    0.8549    0.6075 C.3     1  UNL11       0.0605
      5 C          -2.0147   -0.1880    0.2817 C.2     1  UNL11       0.1319
      6 N          -3.3375   -0.0366    0.2070 N.2     1  UNL11      -0.0060
      7 N          -4.1626   -1.0470   -0.0751 N.am    1  UNL11      -0.0355
      8 C          -3.7336   -2.3116   -0.3042 C.2     1  UNL11       0.4383
      9 O          -4.5185   -3.2609   -0.5616 O.2     1  UNL11      -0.2116
     10 C          -2.3723   -2.5464   -0.2444 C.ar    1  UNL11       0.1005
     11 C          -1.8916   -3.8183   -0.4789 C.ar    1  UNL11      -0.0441
     12 C          -0.5339   -4.0285   -0.4212 C.ar    1  UNL11      -0.0608
     13 C           0.3046   -2.9691   -0.1312 C.ar    1  UNL11      -0.0611
     14 C          -0.1842   -1.6806    0.1086 C.ar    1  UNL11      -0.0517
     15 C          -1.5366   -1.4969    0.0446 C.ar    1  UNL11       0.0205
     16 C           0.8423    1.1286   -1.7424 C.ar    1  UNL11       0.0367
     17 C           1.8129    1.1980   -2.7495 C.ar    1  UNL11      -0.0491
     18 C           1.5193    1.6167   -4.0150 C.ar    1  UNL11      -0.0494
     19 C           0.2220    1.9839   -4.3170 C.ar    1  UNL11       0.0549
     20 C          -0.0541    2.4535   -5.7045 C.3     1  UNL11       0.4174
     21 F           1.0694    2.4441   -6.4861 F       1  UNL11      -0.1659
     22 F          -0.9990    1.5653   -6.2180 F       1  UNL11      -0.1659
     23 F          -0.5835    3.7322   -5.7160 F       1  UNL11      -0.1659
     24 C          -0.7728    1.9287   -3.3589 C.ar    1  UNL11      -0.0494
     25 C          -0.4240    1.4945   -2.0776 C.ar    1  UNL11      -0.0491
     26 H           0.7824    0.2692    1.5438 H       1  UNL11       0.1494
     27 H          -1.1909    1.7357   -0.1075 H       1  UNL11       0.0529
     28 H          -1.3297    1.3206    1.6043 H       1  UNL11       0.0529
     29 H          -5.1817   -0.9015   -0.1371 H       1  UNL11       0.4829
     30 H          -2.5281   -4.6547   -0.6988 H       1  UNL11       0.0627
     31 H          -0.0987   -5.0206   -0.5988 H       1  UNL11       0.0618
     32 H           1.3878   -3.0668   -0.0745 H       1  UNL11       0.0618
     33 H           0.4897   -0.8689    0.3426 H       1  UNL11       0.0624
     34 H           2.8472    0.9101   -2.5199 H       1  UNL11       0.0625
     35 H           2.2697    1.6727   -4.7919 H       1  UNL11       0.0623
     36 H          -1.8051    2.2241   -3.5966 H       1  UNL11       0.0623
     37 H          -1.1912    1.4543   -1.3520 H       1  UNL11       0.0625
@<TRIPOS>BOND
     1     1     2    2
     2     2     3   am
     3     2    16    1
     4     3     4    1
     5     3    26    1
     6     4     5    1
     7     4    27    1
     8     4    28    1
     9     5     6    2
    10     6     7    1
    11     7     8   am
    12     7    29    1
    13     8     9    2
    14     8    10    1
    15    10    11   ar
    16    11    12   ar
    17    11    30    1
    18    12    13   ar
    19    12    31    1
    20    13    14   ar
    21    13    32    1
    22    14    15   ar
    23    14    33    1
    24    15     5    1
    25    15    10   ar
    26    16    17   ar
    27    17    18   ar
    28    17    34    1
    29    18    19   ar
    30    18    35    1
    31    19    20    1
    32    19    24   ar
    33    20    21    1
    34    20    22    1
    35    20    23    1
    36    24    25   ar
    37    24    36    1
    38    25    16   ar
    39    25    37    1
@<TRIPOS>MOLECULE
*****
 37 39 0 0 0
SMALL
GASTEIGER

@<TRIPOS>ATOM
      1 O           0.7530    1.1442    2.8396 O.2     1  UNL11      -0.2702
      2 C           1.2190    0.7433    1.7670 C.2     1  UNL11       0.2444
      3 N           0.3228    0.5965    0.6458 N.am    1  UNL11      -0.3055
      4 C          -1.0461    0.8549    0.6075 C.3     1  UNL11       0.0605
      5 C          -2.0147   -0.1880    0.2817 C.2     1  UNL11       0.1319
      6 N          -1.7337   -1.4591   -0.0073 N.2     1  UNL11      -0.0060
      7 N          -2.6761   -2.3515   -0.3186 N.am    1  UNL11      -0.0355
      8 C          -3.9951   -2.0468   -0.3743 C.2     1  UNL11       0.4383
      9 O          -4.8772   -2.8919   -0.6766 O.2     1  UNL11      -0.2116
     10 C          -4.3642   -0.7459   -0.0860 C.ar    1  UNL11       0.1005
     11 C          -5.6979   -0.3943   -0.1234 C.ar    1  UNL11      -0.0441
     12 C          -6.0438    0.9032    0.1733 C.ar    1  UNL11      -0.0608
     13 C          -5.0543    1.8118    0.4968 C.ar    1  UNL11      -0.0611
     14 C          -3.7023    1.4545    0.5320 C.ar    1  UNL11      -0.0517
     15 C          -3.3839    0.1596    0.2344 C.ar    1  UNL11       0.0205
     16 C           2.6143    0.4095    1.6310 C.ar    1  UNL11       0.0367
     17 C           3.2780   -0.0621    2.7704 C.ar    1  UNL11      -0.0491
     18 C           4.6069   -0.3739    2.7612 C.ar    1  UNL11      -0.0494
     19 C           5.3244   -0.2218    1.5904 C.ar    1  UNL11       0.0549
     20 C           6.7770   -0.5546    1.6263 C.3     1  UNL11       0.4174
     21 F           7.1802   -0.9743    2.8650 F       1  UNL11      -0.1659
     22 F           6.9477   -1.5805    0.6969 F       1  UNL11      -0.1659
     23 F           7.5586    0.5255    1.2550 F       1  UNL11      -0.1659
     24 C           4.7139    0.2361    0.4378 C.ar    1  UNL11      -0.0494
     25 C           3.3521    0.5430    0.4963 C.ar    1  UNL11      -0.0491
     26 H           0.8289    0.2541   -0.2210 H       1  UNL11       0.1494
     27 H          -1.1909    1.7357   -0.1075 H       1  UNL11       0.0529
     28 H          -1.3297    1.3206    1.6043 H       1  UNL11       0.0529
     29 H          -2.4335   -3.3318   -0.5282 H       1  UNL11       0.4829
     30 H          -6.4796   -1.0845   -0.3792 H       1  UNL11       0.0627
     31 H          -7.0898    1.2361    0.1577 H       1  UNL11       0.0618
     32 H          -5.2606    2.8518    0.7455 H       1  UNL11       0.0618
     33 H          -2.9444    2.1843    0.7788 H       1  UNL11       0.0624
     34 H           2.7177   -0.1851    3.7065 H       1  UNL11       0.0625
     35 H           5.1197   -0.7356    3.6420 H       1  UNL11       0.0623
     36 H           5.2844    0.3612   -0.4939 H       1  UNL11       0.0623
     37 H           2.8935    0.8911   -0.3898 H       1  UNL11       0.0625
@<TRIPOS>BOND
     1     1     2    2
     2     2     3   am
     3     2    16    1
     4     3     4    1
     5     3    26    1
     6     4     5    1
     7     4    27    1
     8     4    28    1
     9     5     6    2
    10     6     7    1
    11     7     8   am
    12     7    29    1
    13     8     9    2
    14     8    10    1
    15    10    11   ar
    16    11    12   ar
    17    11    30    1
    18    12    13   ar
    19    12    31    1
    20    13    14   ar
    21    13    32    1
    22    14    15   ar
    23    14    33    1
    24    15     5    1
    25    15    10   ar
    26    16    17   ar
    27    17    18   ar
    28    17    34    1
    29    18    19   ar
    30    18    35    1
    31    19    20    1
    32    19    24   ar
    33    20    21    1
    34    20    22    1
    35    20    23    1
    36    24    25   ar
    37    24    36    1
    38    25    16   ar
    39    25    37    1
@<TRIPOS>MOLECULE
*****
 37 39 0 0 0
SMALL
GASTEIGER

@<TRIPOS>ATOM
      1 O           0.4362   -1.0908   -0.9156 O.2     1  UNL11      -0.2702
      2 C           1.0599   -0.3796   -0.1196 C.2     1  UNL11       0.2444
      3 N           0.3228    0.5965    0.6458 N.am    1  UNL11      -0.3055
      4 C          -1.0461    0.8549    0.6075 C.3     1  UNL11       0.0605
      5 C          -2.0147   -0.1880    0.2817 C.2     1  UNL11       0.1319
      6 N          -1.8006   -1.2404   -0.5088 N.2     1  UNL11      -0.0060
      7 N          -2.7468   -2.1424   -0.7781 N.am    1  UNL11      -0.0355
      8 C          -4.0045   -2.0675   -0.2801 C.2     1  UNL11       0.4383
      9 O          -4.8937   -2.9176   -0.5452 O.2     1  UNL11      -0.2116
     10 C          -4.3021   -1.0022    0.5496 C.ar    1  UNL11       0.1005
     11 C          -5.5689   -0.8915    1.0849 C.ar    1  UNL11      -0.0441
     12 C          -5.8416    0.1719    1.9130 C.ar    1  UNL11      -0.0608
     13 C          -4.8480    1.0934    2.1829 C.ar    1  UNL11      -0.0611
     14 C          -3.5647    0.9813    1.6377 C.ar    1  UNL11      -0.0517
     15 C          -3.3180   -0.0842    0.8188 C.ar    1  UNL11       0.0205
     16 C           2.4876   -0.4982    0.0359 C.ar    1  UNL11       0.0367
     17 C           3.1054    0.3394    0.9728 C.ar    1  UNL11      -0.0491
     18 C           4.4554    0.3339    1.1748 C.ar    1  UNL11      -0.0494
     19 C           5.2419   -0.5264    0.4330 C.ar    1  UNL11       0.0549
     20 C           6.7132   -0.4888    0.6694 C.3     1  UNL11       0.4174
     21 F           7.0599    0.4302    1.6225 F       1  UNL11      -0.1659
     22 F           7.0552   -1.7714    1.0977 F       1  UNL11      -0.1659
     23 F           7.4104   -0.1994   -0.4906 F       1  UNL11      -0.1659
     24 C           4.6792   -1.3760   -0.5009 C.ar    1  UNL11      -0.0494
     25 C           3.2933   -1.3337   -0.6729 C.ar    1  UNL11      -0.0491
     26 H           0.9544    1.1438    1.2988 H       1  UNL11       0.1494
     27 H          -1.1909    1.7357   -0.1075 H       1  UNL11       0.0529
     28 H          -1.3297    1.3206    1.6043 H       1  UNL11       0.0529
     29 H          -2.5526   -2.9535   -1.3848 H       1  UNL11       0.4829
     30 H          -6.3553   -1.5937    0.8811 H       1  UNL11       0.0627
     31 H          -6.8329    0.3079    2.3649 H       1  UNL11       0.0618
     32 H          -4.9968    1.9548    2.8327 H       1  UNL11       0.0618
     33 H          -2.8057    1.7191    1.8553 H       1  UNL11       0.0624
     34 H           2.4900    1.0281    1.5664 H       1  UNL11       0.0625
     35 H           4.9325    0.9827    1.8966 H       1  UNL11       0.0623
     36 H           5.3042   -2.0587   -1.0947 H       1  UNL11       0.0623
     37 H           2.8718   -1.9876   -1.3880 H       1  UNL11       0.0625
@<TRIPOS>BOND
     1     1     2    2
     2     2     3   am
     3     2    16    1
     4     3     4    1
     5     3    26    1
     6     4     5    1
     7     4    27    1
     8     4    28    1
     9     5     6    2
    10     6     7    1
    11     7     8   am
    12     7    29    1
    13     8     9    2
    14     8    10    1
    15    10    11   ar
    16    11    12   ar
    17    11    30    1
    18    12    13   ar
    19    12    31    1
    20    13    14   ar
    21    13    32    1
    22    14    15   ar
    23    14    33    1
    24    15     5    1
    25    15    10   ar
    26    16    17   ar
    27    17    18   ar
    28    17    34    1
    29    18    19   ar
    30    18    35    1
    31    19    20    1
    32    19    24   ar
    33    20    21    1
    34    20    22    1
    35    20    23    1
    36    24    25   ar
    37    24    36    1
    38    25    16   ar
    39    25    37    1
@<TRIPOS>MOLECULE
*****
 37 39 0 0 0
SMALL
GASTEIGER

@<TRIPOS>ATOM
      1 O           2.5619    1.0843    0.4306 O.2     1  UNL11      -0.2702
      2 C           1.4028    1.5074    0.3530 C.2     1  UNL11       0.2444
      3 N           0.3228    0.5965    0.6458 N.am    1  UNL11      -0.3055
      4 C          -1.0461    0.8549    0.6075 C.3     1  UNL11       0.0605
      5 C          -2.0147   -0.1880    0.2817 C.2     1  UNL11       0.1319
      6 N          -2.4638   -0.4906   -0.9369 N.2     1  UNL11      -0.0060
      7 N          -3.3703   -1.4462   -1.1529 N.am    1  UNL11      -0.0355
      8 C          -3.9170   -2.1867   -0.1587 C.2     1  UNL11       0.4383
      9 O          -4.7774   -3.0806   -0.3695 O.2     1  UNL11      -0.2116
     10 C          -3.4994   -1.9303    1.1342 C.ar    1  UNL11       0.1005
     11 C          -4.0248   -2.6665    2.1762 C.ar    1  UNL11      -0.0441
     12 C          -3.5907   -2.3999    3.4535 C.ar    1  UNL11      -0.0608
     13 C          -2.6490   -1.4093    3.6567 C.ar    1  UNL11      -0.0611
     14 C          -2.1189   -0.6620    2.5997 C.ar    1  UNL11      -0.0517
     15 C          -2.5652   -0.9462    1.3400 C.ar    1  UNL11       0.0205
     16 C           1.1226    2.8661   -0.0368 C.ar    1  UNL11       0.0367
     17 C          -0.0298    3.4628    0.4896 C.ar    1  UNL11      -0.0491
     18 C          -0.4075    4.7321    0.1590 C.ar    1  UNL11      -0.0494
     19 C           0.3712    5.4563   -0.7231 C.ar    1  UNL11       0.0549
     20 C          -0.0851    6.8315   -1.0735 C.3     1  UNL11       0.4174
     21 F          -1.2498    7.1667   -0.4378 F       1  UNL11      -0.1659
     22 F           0.9425    7.6812   -0.6643 F       1  UNL11      -0.1659
     23 F          -0.2743    6.9758   -2.4369 F       1  UNL11      -0.1659
     24 C           1.5204    4.9134   -1.2665 C.ar    1  UNL11      -0.0494
     25 C           1.8658    3.6104   -0.8989 C.ar    1  UNL11      -0.0491
     26 H           0.6801   -0.3669    0.9085 H       1  UNL11       0.1494
     27 H          -1.1909    1.7357   -0.1075 H       1  UNL11       0.0529
     28 H          -1.3297    1.3206    1.6043 H       1  UNL11       0.0529
     29 H          -3.6939   -1.6680   -2.1067 H       1  UNL11       0.4829
     30 H          -4.7619   -3.4351    2.0383 H       1  UNL11       0.0627
     31 H          -3.9764   -2.9553    4.3183 H       1  UNL11       0.0618
     32 H          -2.2606   -1.1514    4.6410 H       1  UNL11       0.0618
     33 H          -1.3899    0.1144    2.7832 H       1  UNL11       0.0624
     34 H          -0.6566    2.8957    1.1901 H       1  UNL11       0.0625
     35 H          -1.2989    5.1917    0.5638 H       1  UNL11       0.0623
     36 H           2.1393    5.4871   -1.9716 H       1  UNL11       0.0623
     37 H           2.7465    3.2041   -1.3183 H       1  UNL11       0.0625
@<TRIPOS>BOND
     1     1     2    2
     2     2     3   am
     3     2    16    1
     4     3     4    1
     5     3    26    1
     6     4     5    1
     7     4    27    1
     8     4    28    1
     9     5     6    2
    10     6     7    1
    11     7     8   am
    12     7    29    1
    13     8     9    2
    14     8    10    1
    15    10    11   ar
    16    11    12   ar
    17    11    30    1
    18    12    13   ar
    19    12    31    1
    20    13    14   ar
    21    13    32    1
    22    14    15   ar
    23    14    33    1
    24    15     5    1
    25    15    10   ar
    26    16    17   ar
    27    17    18   ar
    28    17    34    1
    29    18    19   ar
    30    18    35    1
    31    19    20    1
    32    19    24   ar
    33    20    21    1
    34    20    22    1
    35    20    23    1
    36    24    25   ar
    37    24    36    1
    38    25    16   ar
    39    25    37    1
@<TRIPOS>MOLECULE
*****
 37 39 0 0 0
SMALL
GASTEIGER

@<TRIPOS>ATOM
      1 O           2.5261    0.8344    0.0240 O.2     1  UNL11      -0.2702
      2 C           1.3606    1.2097   -0.1471 C.2     1  UNL11       0.2444
      3 N           0.3228    0.5965    0.6458 N.am    1  UNL11      -0.3055
      4 C          -1.0461    0.8549    0.6075 C.3     1  UNL11       0.0605
      5 C          -2.0147   -0.1880    0.2817 C.2     1  UNL11       0.1319
      6 N          -2.8704   -0.1742   -0.7410 N.2     1  UNL11      -0.0060
      7 N          -3.7448   -1.1584   -0.9609 N.am    1  UNL11      -0.0355
      8 C          -3.8450   -2.2512   -0.1663 C.2     1  UNL11       0.4383
      9 O          -4.6777   -3.1713   -0.3755 O.2     1  UNL11      -0.2116
     10 C          -2.9886   -2.3365    0.9159 C.ar    1  UNL11       0.1005
     11 C          -3.0516   -3.4363    1.7467 C.ar    1  UNL11      -0.0441
     12 C          -2.1862   -3.5043    2.8132 C.ar    1  UNL11      -0.0608
     13 C          -1.2857   -2.4774    3.0225 C.ar    1  UNL11      -0.0611
     14 C          -1.2245   -1.3618    2.1807 C.ar    1  UNL11      -0.0517
     15 C          -2.0938   -1.3177    1.1276 C.ar    1  UNL11       0.0205
     16 C           1.0306    2.2180   -1.1224 C.ar    1  UNL11       0.0367
     17 C          -0.2324    2.1447   -1.7228 C.ar    1  UNL11      -0.0491
     18 C          -0.6334    3.0275   -2.6835 C.ar    1  UNL11      -0.0494
     19 C           0.2322    4.0293   -3.0785 C.ar    1  UNL11       0.0549
     20 C          -0.2355    4.9615   -4.1435 C.3     1  UNL11       0.4174
     21 F          -1.4992    4.6607   -4.5746 F       1  UNL11      -0.1659
     22 F          -0.2196    6.2295   -3.5629 F       1  UNL11      -0.1659
     23 F           0.6124    4.9552   -5.2374 F       1  UNL11      -0.1659
     24 C           1.4880    4.1466   -2.5128 C.ar    1  UNL11      -0.0494
     25 C           1.8540    3.2191   -1.5340 C.ar    1  UNL11      -0.0491
     26 H           0.7134   -0.1310    1.3113 H       1  UNL11       0.1494
     27 H          -1.1909    1.7357   -0.1075 H       1  UNL11       0.0529
     28 H          -1.3297    1.3206    1.6043 H       1  UNL11       0.0529
     29 H          -4.3894   -1.1287   -1.7654 H       1  UNL11       0.4829
     30 H          -3.7489   -4.2402    1.6039 H       1  UNL11       0.0627
     31 H          -2.1945   -4.3564    3.5055 H       1  UNL11       0.0618
     32 H          -0.5714   -2.4715    3.8446 H       1  UNL11       0.0618
     33 H          -0.5181   -0.5659    2.3689 H       1  UNL11       0.0624
     34 H          -0.9275    1.3516   -1.4175 H       1  UNL11       0.0625
     35 H          -1.6079    2.9691   -3.1489 H       1  UNL11       0.0623
     36 H           2.1796    4.9411   -2.8287 H       1  UNL11       0.0623
     37 H           2.8152    3.3173   -1.1062 H       1  UNL11       0.0625
@<TRIPOS>BOND
     1     1     2    2
     2     2     3   am
     3     2    16    1
     4     3     4    1
     5     3    26    1
     6     4     5    1
     7     4    27    1
     8     4    28    1
     9     5     6    2
    10     6     7    1
    11     7     8   am
    12     7    29    1
    13     8     9    2
    14     8    10    1
    15    10    11   ar
    16    11    12   ar
    17    11    30    1
    18    12    13   ar
    19    12    31    1
    20    13    14   ar
    21    13    32    1
    22    14    15   ar
    23    14    33    1
    24    15     5    1
    25    15    10   ar
    26    16    17   ar
    27    17    18   ar
    28    17    34    1
    29    18    19   ar
    30    18    35    1
    31    19    20    1
    32    19    24   ar
    33    20    21    1
    34    20    22    1
    35    20    23    1
    36    24    25   ar
    37    24    36    1
    38    25    16   ar
    39    25    37    1
@<TRIPOS>MOLECULE
*****
 37 39 0 0 0
SMALL
GASTEIGER

@<TRIPOS>ATOM
      1 O           2.4140    0.4740    1.5996 O.2     1  UNL11      -0.2702
      2 C           1.2190    0.7433    1.7670 C.2     1  UNL11       0.2444
      3 N           0.3228    0.5965    0.6458 N.am    1  UNL11      -0.3055
      4 C          -1.0461    0.8549    0.6075 C.3     1  UNL11       0.0605
      5 C          -2.0147   -0.1880    0.2817 C.2     1  UNL11       0.1319
      6 N          -2.2109   -1.3185    0.9612 N.2     1  UNL11      -0.0060
      7 N          -3.1030   -2.2378    0.5863 N.am    1  UNL11      -0.0355
      8 C          -3.8813   -2.1085   -0.5151 C.2     1  UNL11       0.4383
      9 O          -4.7146   -2.9835   -0.8668 O.2     1  UNL11      -0.2116
     10 C          -3.7347   -0.9603   -1.2714 C.ar    1  UNL11       0.1005
     11 C          -4.5129   -0.7845   -2.3970 C.ar    1  UNL11      -0.0441
     12 C          -4.3559    0.3677   -3.1310 C.ar    1  UNL11      -0.0608
     13 C          -3.4297    1.3094   -2.7250 C.ar    1  UNL11      -0.0611
     14 C          -2.6396    1.1289   -1.5848 C.ar    1  UNL11      -0.0517
     15 C          -2.8147   -0.0234   -0.8719 C.ar    1  UNL11       0.0205
     16 C           0.7240    1.2105    3.0372 C.ar    1  UNL11       0.0367
     17 C          -0.3785    2.0737    3.0209 C.ar    1  UNL11      -0.0491
     18 C          -0.9052    2.6024    4.1639 C.ar    1  UNL11      -0.0494
     19 C          -0.3353    2.2764    5.3795 C.ar    1  UNL11       0.0549
     20 C          -0.9274    2.8891    6.6026 C.3     1  UNL11       0.4174
     21 F          -1.9833    3.7092    6.3100 F       1  UNL11      -0.1659
     22 F          -1.3586    1.8181    7.3851 F       1  UNL11      -0.1659
     23 F           0.0090    3.6194    7.3135 F       1  UNL11      -0.1659
     24 C           0.7515    1.4250    5.4486 C.ar    1  UNL11      -0.0494
     25 C           1.2561    0.9095    4.2521 C.ar    1  UNL11      -0.0491
     26 H           0.8289    0.2541   -0.2210 H       1  UNL11       0.1494
     27 H          -1.1909    1.7357   -0.1075 H       1  UNL11       0.0529
     28 H          -1.3297    1.3206    1.6043 H       1  UNL11       0.0529
     29 H          -3.2429   -3.0996    1.1352 H       1  UNL11       0.4829
     30 H          -5.2325   -1.5079   -2.7316 H       1  UNL11       0.0627
     31 H          -4.9489    0.5575   -4.0351 H       1  UNL11       0.0618
     32 H          -3.2592    2.2437   -3.2581 H       1  UNL11       0.0618
     33 H          -1.9149    1.8748   -1.2912 H       1  UNL11       0.0624
     34 H          -0.8381    2.3407    2.0603 H       1  UNL11       0.0625
     35 H          -1.7552    3.2711    4.1508 H       1  UNL11       0.0623
     36 H           1.2086    1.1674    6.4151 H       1  UNL11       0.0623
     37 H           2.0862    0.2586    4.3147 H       1  UNL11       0.0625
@<TRIPOS>BOND
     1     1     2    2
     2     2     3   am
     3     2    16    1
     4     3     4    1
     5     3    26    1
     6     4     5    1
     7     4    27    1
     8     4    28    1
     9     5     6    2
    10     6     7    1
    11     7     8   am
    12     7    29    1
    13     8     9    2
    14     8    10    1
    15    10    11   ar
    16    11    12   ar
    17    11    30    1
    18    12    13   ar
    19    12    31    1
    20    13    14   ar
    21    13    32    1
    22    14    15   ar
    23    14    33    1
    24    15     5    1
    25    15    10   ar
    26    16    17   ar
    27    17    18   ar
    28    17    34    1
    29    18    19   ar
    30    18    35    1
    31    19    20    1
    32    19    24   ar
    33    20    21    1
    34    20    22    1
    35    20    23    1
    36    24    25   ar
    37    24    36    1
    38    25    16   ar
    39    25    37    1
@<TRIPOS>MOLECULE
*****
 37 39 0 0 0
SMALL
GASTEIGER

@<TRIPOS>ATOM
      1 O           0.2752   -1.6211    1.2605 O.2     1  UNL11      -0.2702
      2 C           0.9790   -0.6460    0.9737 C.2     1  UNL11       0.2444
      3 N           0.3228    0.5965    0.6458 N.am    1  UNL11      -0.3055
      4 C          -1.0461    0.8549    0.6075 C.3     1  UNL11       0.0605
      5 C          -2.0147   -0.1880    0.2817 C.2     1  UNL11       0.1319
      6 N          -2.6183   -0.9994    1.1509 N.2     1  UNL11      -0.0060
      7 N          -3.4783   -1.9474    0.7727 N.am    1  UNL11      -0.0355
      8 C          -3.8095   -2.1732   -0.5215 C.2     1  UNL11       0.4383
      9 O          -4.6151   -3.0746   -0.8711 O.2     1  UNL11      -0.2116
     10 C          -3.2231   -1.3697   -1.4819 C.ar    1  UNL11       0.1005
     11 C          -3.5381   -1.5604   -2.8116 C.ar    1  UNL11      -0.0441
     12 C          -2.9489   -0.7457   -3.7497 C.ar    1  UNL11      -0.0608
     13 C          -2.0638    0.2325   -3.3384 C.ar    1  UNL11      -0.0611
     14 C          -1.7435    0.4232   -1.9902 C.ar    1  UNL11      -0.0517
     15 C          -2.3425   -0.3979   -1.0771 C.ar    1  UNL11       0.0205
     16 C           2.4168   -0.7385    0.9449 C.ar    1  UNL11       0.0367
     17 C           3.0981    0.0922    0.0467 C.ar    1  UNL11      -0.0491
     18 C           4.4562    0.0604   -0.0867 C.ar    1  UNL11      -0.0494
     19 C           5.1869   -0.8184    0.6897 C.ar    1  UNL11       0.0549
     20 C           6.6654   -0.8363    0.5009 C.3     1  UNL11       0.4174
     21 F           7.0754    0.0580   -0.4505 F       1  UNL11      -0.1659
     22 F           7.2040   -0.4932    1.7409 F       1  UNL11      -0.1659
     23 F           7.1202   -2.0937    0.1435 F       1  UNL11      -0.1659
     24 C           4.5613   -1.6559    1.5941 C.ar    1  UNL11      -0.0494
     25 C           3.1694   -1.5878    1.6946 C.ar    1  UNL11      -0.0491
     26 H           1.0204    1.3638    0.4235 H       1  UNL11       0.1494
     27 H          -1.1909    1.7357   -0.1075 H       1  UNL11       0.0529
     28 H          -1.3297    1.3206    1.6043 H       1  UNL11       0.0529
     29 H          -3.9399   -2.5556    1.4660 H       1  UNL11       0.4829
     30 H          -4.2179   -2.3194   -3.1504 H       1  UNL11       0.0627
     31 H          -3.1638   -0.8550   -4.8208 H       1  UNL11       0.0618
     32 H          -1.5667    0.9125   -4.0287 H       1  UNL11       0.0618
     33 H          -1.0413    1.1887   -1.6922 H       1  UNL11       0.0624
     34 H           2.5271    0.7931   -0.5762 H       1  UNL11       0.0625
     35 H           4.9818    0.7003   -0.7823 H       1  UNL11       0.0623
     36 H           5.1411   -2.3585    2.2101 H       1  UNL11       0.0623
     37 H           2.7000   -2.2307    2.3895 H       1  UNL11       0.0625
@<TRIPOS>BOND
     1     1     2    2
     2     2     3   am
     3     2    16    1
     4     3     4    1
     5     3    26    1
     6     4     5    1
     7     4    27    1
     8     4    28    1
     9     5     6    2
    10     6     7    1
    11     7     8   am
    12     7    29    1
    13     8     9    2
    14     8    10    1
    15    10    11   ar
    16    11    12   ar
    17    11    30    1
    18    12    13   ar
    19    12    31    1
    20    13    14   ar
    21    13    32    1
    22    14    15   ar
    23    14    33    1
    24    15     5    1
    25    15    10   ar
    26    16    17   ar
    27    17    18   ar
    28    17    34    1
    29    18    19   ar
    30    18    35    1
    31    19    20    1
    32    19    24   ar
    33    20    21    1
    34    20    22    1
    35    20    23    1
    36    24    25   ar
    37    24    36    1
    38    25    16   ar
    39    25    37    1
@<TRIPOS>MOLECULE
*****
 37 39 0 0 0
SMALL
GASTEIGER

@<TRIPOS>ATOM
      1 O           2.2790   -0.4687    0.0655 O.2     1  UNL11      -0.2702
      2 C           1.0599   -0.3796   -0.1196 C.2     1  UNL11       0.2444
      3 N           0.3228    0.5965    0.6458 N.am    1  UNL11      -0.3055
      4 C          -1.0461    0.8549    0.6075 C.3     1  UNL11       0.0605
      5 C          -2.0147   -0.1880    0.2817 C.2     1  UNL11       0.1319
      6 N          -3.1895   -0.0084   -0.3232 N.2     1  UNL11      -0.0060
      7 N          -4.0341   -1.0126   -0.5672 N.am    1  UNL11      -0.0355
      8 C          -3.7781   -2.2968   -0.2194 C.2     1  UNL11       0.4383
      9 O          -4.5832   -3.2371   -0.4456 O.2     1  UNL11      -0.2116
     10 C          -2.5770   -2.5615    0.4124 C.ar    1  UNL11       0.1005
     11 C          -2.2725   -3.8569    0.7771 C.ar    1  UNL11      -0.0441
     12 C          -1.0698   -4.0991    1.3982 C.ar    1  UNL11      -0.0608
     13 C          -0.2070   -3.0470    1.6391 C.ar    1  UNL11      -0.0611
     14 C          -0.5179   -1.7338    1.2709 C.ar    1  UNL11      -0.0517
     15 C          -1.7181   -1.5188    0.6545 C.ar    1  UNL11       0.0205
     16 C           0.3771   -1.2343   -1.0577 C.ar    1  UNL11       0.0367
     17 C          -1.0026   -1.0499   -1.2113 C.ar    1  UNL11      -0.0491
     18 C          -1.7518   -1.8274   -2.0464 C.ar    1  UNL11      -0.0494
     19 C          -1.1317   -2.8299   -2.7671 C.ar    1  UNL11       0.0549
     20 C          -1.9874   -3.6692   -3.6533 C.3     1  UNL11       0.4174
     21 F          -3.3029   -3.2943   -3.6069 F       1  UNL11      -0.1659
     22 F          -1.4847   -3.4846   -4.9412 F       1  UNL11      -0.1659
     23 F          -1.9036   -5.0109   -3.3241 F       1  UNL11      -0.1659
     24 C           0.2284   -3.0489   -2.6536 C.ar    1  UNL11      -0.0494
     25 C           0.9531   -2.2282   -1.7857 C.ar    1  UNL11      -0.0491
     26 H           0.9544    1.1438    1.2988 H       1  UNL11       0.1494
     27 H          -1.1909    1.7357   -0.1075 H       1  UNL11       0.0529
     28 H          -1.3297    1.3206    1.6043 H       1  UNL11       0.0529
     29 H          -4.9327   -0.8488   -1.0461 H       1  UNL11       0.4829
     30 H          -2.9331   -4.6856    0.6043 H       1  UNL11       0.0627
     31 H          -0.7783   -5.1107    1.7097 H       1  UNL11       0.0618
     32 H           0.7611   -3.1710    2.1225 H       1  UNL11       0.0618
     33 H           0.1684   -0.9250    1.4776 H       1  UNL11       0.0624
     34 H          -1.5056   -0.2572   -0.6422 H       1  UNL11       0.0625
     35 H          -2.8177   -1.6863   -2.1629 H       1  UNL11       0.0623
     36 H           0.7228   -3.8488   -3.2237 H       1  UNL11       0.0623
     37 H           1.9924   -2.4021   -1.7063 H       1  UNL11       0.0625
@<TRIPOS>BOND
     1     1     2    2
     2     2     3   am
     3     2    16    1
     4     3     4    1
     5     3    26    1
     6     4     5    1
     7     4    27    1
     8     4    28    1
     9     5     6    2
    10     6     7    1
    11     7     8   am
    12     7    29    1
    13     8     9    2
    14     8    10    1
    15    10    11   ar
    16    11    12   ar
    17    11    30    1
    18    12    13   ar
    19    12    31    1
    20    13    14   ar
    21    13    32    1
    22    14    15   ar
    23    14    33    1
    24    15     5    1
    25    15    10   ar
    26    16    17   ar
    27    17    18   ar
    28    17    34    1
    29    18    19   ar
    30    18    35    1
    31    19    20    1
    32    19    24   ar
    33    20    21    1
    34    20    22    1
    35    20    23    1
    36    24    25   ar
    37    24    36    1
    38    25    16   ar
    39    25    37    1
@<TRIPOS>MOLECULE
*****
 37 39 0 0 0
SMALL
GASTEIGER

@<TRIPOS>ATOM
      1 O           2.2256   -0.6888    0.4872 O.2     1  UNL11      -0.2702
      2 C           0.9936   -0.6552    0.3904 C.2     1  UNL11       0.2444
      3 N           0.3228    0.5965    0.6458 N.am    1  UNL11      -0.3055
      4 C          -1.0461    0.8549    0.6075 C.3     1  UNL11       0.0605
      5 C          -2.0147   -0.1880    0.2817 C.2     1  UNL11       0.1319
      6 N          -3.1895   -0.0084   -0.3232 N.2     1  UNL11      -0.0060
      7 N          -4.0341   -1.0126   -0.5672 N.am    1  UNL11      -0.0355
      8 C          -3.7781   -2.2968   -0.2194 C.2     1  UNL11       0.4383
      9 O          -4.5832   -3.2371   -0.4456 O.2     1  UNL11      -0.2116
     10 C          -2.5770   -2.5615    0.4124 C.ar    1  UNL11       0.1005
     11 C          -2.2725   -3.8569    0.7771 C.ar    1  UNL11      -0.0441
     12 C          -1.0698   -4.0991    1.3982 C.ar    1  UNL11      -0.0608
     13 C          -0.2070   -3.0470    1.6391 C.ar    1  UNL11      -0.0611
     14 C          -0.5179   -1.7338    1.2709 C.ar    1  UNL11      -0.0517
     15 C          -1.7181   -1.5188    0.6545 C.ar    1  UNL11       0.0205
     16 C           0.2334   -1.8315    0.0511 C.ar    1  UNL11       0.0367
     17 C          -0.9619   -1.6448   -0.6543 C.ar    1  UNL11      -0.0491
     18 C          -1.7755   -2.6865   -0.9952 C.ar    1  UNL11      -0.0494
     19 C          -1.4105   -3.9695   -0.6354 C.ar    1  UNL11       0.0549
     20 C          -2.3349   -5.0775   -1.0093 C.3     1  UNL11       0.4174
     21 F          -3.4409   -4.6245   -1.6761 F       1  UNL11      -0.1659
     22 F          -1.5921   -5.9201   -1.8363 F       1  UNL11      -0.1659
     23 F          -2.7550   -5.7898    0.1005 F       1  UNL11      -0.1659
     24 C          -0.2381   -4.2062    0.0576 C.ar    1  UNL11      -0.0494
     25 C           0.5616   -3.1083    0.3850 C.ar    1  UNL11      -0.0491
     26 H           1.0080    1.3678    0.8913 H       1  UNL11       0.1494
     27 H          -1.1909    1.7357   -0.1075 H       1  UNL11       0.0529
     28 H          -1.3297    1.3206    1.6043 H       1  UNL11       0.0529
     29 H          -4.9327   -0.8488   -1.0461 H       1  UNL11       0.4829
     30 H          -2.9331   -4.6856    0.6043 H       1  UNL11       0.0627
     31 H          -0.7783   -5.1107    1.7097 H       1  UNL11       0.0618
     32 H           0.7611   -3.1710    2.1225 H       1  UNL11       0.0618
     33 H           0.1684   -0.9250    1.4776 H       1  UNL11       0.0624
     34 H          -1.2623   -0.6293   -0.9437 H       1  UNL11       0.0625
     35 H          -2.6999   -2.5417   -1.5377 H       1  UNL11       0.0623
     36 H           0.0521   -5.2264    0.3479 H       1  UNL11       0.0623
     37 H           1.4565   -3.2990    0.9136 H       1  UNL11       0.0625
@<TRIPOS>BOND
     1     1     2    2
     2     2     3   am
     3     2    16    1
     4     3     4    1
     5     3    26    1
     6     4     5    1
     7     4    27    1
     8     4    28    1
     9     5     6    2
    10     6     7    1
    11     7     8   am
    12     7    29    1
    13     8     9    2
    14     8    10    1
    15    10    11   ar
    16    11    12   ar
    17    11    30    1
    18    12    13   ar
    19    12    31    1
    20    13    14   ar
    21    13    32    1
    22    14    15   ar
    23    14    33    1
    24    15     5    1
    25    15    10   ar
    26    16    17   ar
    27    17    18   ar
    28    17    34    1
    29    18    19   ar
    30    18    35    1
    31    19    20    1
    32    19    24   ar
    33    20    21    1
    34    20    22    1
    35    20    23    1
    36    24    25   ar
    37    24    36    1
    38    25    16   ar
    39    25    37    1
@<TRIPOS>MOLECULE
*****
 37 39 0 0 0
SMALL
GASTEIGER

@<TRIPOS>ATOM
      1 O           2.3653   -0.0501   -0.1956 O.2     1  UNL11      -0.2702
      2 C           1.1657    0.1352   -0.4305 C.2     1  UNL11       0.2444
      3 N           0.3228    0.5965    0.6458 N.am    1  UNL11      -0.3055
      4 C          -1.0461    0.8549    0.6075 C.3     1  UNL11       0.0605
      5 C          -2.0147   -0.1880    0.2817 C.2     1  UNL11       0.1319
      6 N          -2.2109   -1.3185    0.9612 N.2     1  UNL11      -0.0060
      7 N          -3.1030   -2.2378    0.5863 N.am    1  UNL11      -0.0355
      8 C          -3.8813   -2.1085   -0.5151 C.2     1  UNL11       0.4383
      9 O          -4.7146   -2.9835   -0.8668 O.2     1  UNL11      -0.2116
     10 C          -3.7347   -0.9603   -1.2714 C.ar    1  UNL11       0.1005
     11 C          -4.5129   -0.7845   -2.3970 C.ar    1  UNL11      -0.0441
     12 C          -4.3559    0.3677   -3.1310 C.ar    1  UNL11      -0.0608
     13 C          -3.4297    1.3094   -2.7250 C.ar    1  UNL11      -0.0611
     14 C          -2.6396    1.1289   -1.5848 C.ar    1  UNL11      -0.0517
     15 C          -2.8147   -0.0234   -0.8719 C.ar    1  UNL11       0.0205
     16 C           0.6070   -0.1169   -1.7347 C.ar    1  UNL11       0.0367
     17 C           1.4765   -0.5813   -2.7294 C.ar    1  UNL11      -0.0491
     18 C           1.0594   -0.8186   -4.0073 C.ar    1  UNL11      -0.0494
     19 C          -0.2644   -0.5958   -4.3340 C.ar    1  UNL11       0.0549
     20 C          -0.6763   -0.8484   -5.7441 C.3     1  UNL11       0.4174
     21 F           0.3677   -1.2780   -6.5180 F       1  UNL11      -0.1659
     22 F          -1.6566   -1.8382   -5.6749 F       1  UNL11      -0.1659
     23 F          -1.2175    0.2829   -6.3296 F       1  UNL11      -0.1659
     24 C          -1.1629   -0.1418   -3.3866 C.ar    1  UNL11      -0.0494
     25 C          -0.6891    0.0875   -2.0924 C.ar    1  UNL11      -0.0491
     26 H           0.8692    0.7291    1.5451 H       1  UNL11       0.1494
     27 H          -1.1909    1.7357   -0.1075 H       1  UNL11       0.0529
     28 H          -1.3297    1.3206    1.6043 H       1  UNL11       0.0529
     29 H          -3.2429   -3.0996    1.1352 H       1  UNL11       0.4829
     30 H          -5.2325   -1.5079   -2.7316 H       1  UNL11       0.0627
     31 H          -4.9489    0.5575   -4.0351 H       1  UNL11       0.0618
     32 H          -3.2592    2.2437   -3.2581 H       1  UNL11       0.0618
     33 H          -1.9149    1.8748   -1.2912 H       1  UNL11       0.0624
     34 H           2.5308   -0.7601   -2.4810 H       1  UNL11       0.0625
     35 H           1.7318   -1.1747   -4.7759 H       1  UNL11       0.0623
     36 H          -2.2161    0.0395   -3.6460 H       1  UNL11       0.0623
     37 H          -1.3833    0.4331   -1.3745 H       1  UNL11       0.0625
@<TRIPOS>BOND
     1     1     2    2
     2     2     3   am
     3     2    16    1
     4     3     4    1
     5     3    26    1
     6     4     5    1
     7     4    27    1
     8     4    28    1
     9     5     6    2
    10     6     7    1
    11     7     8   am
    12     7    29    1
    13     8     9    2
    14     8    10    1
    15    10    11   ar
    16    11    12   ar
    17    11    30    1
    18    12    13   ar
    19    12    31    1
    20    13    14   ar
    21    13    32    1
    22    14    15   ar
    23    14    33    1
    24    15     5    1
    25    15    10   ar
    26    16    17   ar
    27    17    18   ar
    28    17    34    1
    29    18    19   ar
    30    18    35    1
    31    19    20    1
    32    19    24   ar
    33    20    21    1
    34    20    22    1
    35    20    23    1
    36    24    25   ar
    37    24    36    1
    38    25    16   ar
    39    25    37    1
@<TRIPOS>MOLECULE
*****
 37 39 0 0 0
SMALL
GASTEIGER

@<TRIPOS>ATOM
      1 O           1.1188    2.6651    0.0251 O.2     1  UNL11      -0.2702
      2 C           1.4028    1.5074    0.3530 C.2     1  UNL11       0.2444
      3 N           0.3228    0.5965    0.6458 N.am    1  UNL11      -0.3055
      4 C          -1.0461    0.8549    0.6075 C.3     1  UNL11       0.0605
      5 C          -2.0147   -0.1880    0.2817 C.2     1  UNL11       0.1319
      6 N          -1.8006   -1.2404   -0.5088 N.2     1  UNL11      -0.0060
      7 N          -2.7468   -2.1424   -0.7781 N.am    1  UNL11      -0.0355
      8 C          -4.0045   -2.0675   -0.2801 C.2     1  UNL11       0.4383
      9 O          -4.8937   -2.9176   -0.5452 O.2     1  UNL11      -0.2116
     10 C          -4.3021   -1.0022    0.5496 C.ar    1  UNL11       0.1005
     11 C          -5.5689   -0.8915    1.0849 C.ar    1  UNL11      -0.0441
     12 C          -5.8416    0.1719    1.9130 C.ar    1  UNL11      -0.0608
     13 C          -4.8480    1.0934    2.1829 C.ar    1  UNL11      -0.0611
     14 C          -3.5647    0.9813    1.6377 C.ar    1  UNL11      -0.0517
     15 C          -3.3180   -0.0842    0.8188 C.ar    1  UNL11       0.0205
     16 C           2.7719    1.0709    0.4625 C.ar    1  UNL11       0.0367
     17 C           2.9958   -0.2629    0.8255 C.ar    1  UNL11      -0.0491
     18 C           4.2521   -0.7704    0.9915 C.ar    1  UNL11      -0.0494
     19 C           5.3417    0.0558    0.7944 C.ar    1  UNL11       0.0549
     20 C           6.6959   -0.5308    1.0040 C.3     1  UNL11       0.4174
     21 F           6.6369   -1.8474    1.3730 F       1  UNL11      -0.1659
     22 F           7.3494   -0.4086   -0.2222 F       1  UNL11      -0.1659
     23 F           7.4098    0.1612    1.9669 F       1  UNL11      -0.1659
     24 C           5.1731    1.3788    0.4310 C.ar    1  UNL11      -0.0494
     25 C           3.8683    1.8531    0.2737 C.ar    1  UNL11      -0.0491
     26 H           0.6801   -0.3669    0.9085 H       1  UNL11       0.1494
     27 H          -1.1909    1.7357   -0.1075 H       1  UNL11       0.0529
     28 H          -1.3297    1.3206    1.6043 H       1  UNL11       0.0529
     29 H          -2.5526   -2.9535   -1.3848 H       1  UNL11       0.4829
     30 H          -6.3553   -1.5937    0.8811 H       1  UNL11       0.0627
     31 H          -6.8329    0.3079    2.3649 H       1  UNL11       0.0618
     32 H          -4.9968    1.9548    2.8327 H       1  UNL11       0.0618
     33 H          -2.8057    1.7191    1.8553 H       1  UNL11       0.0624
     34 H           2.1371   -0.9277    0.9861 H       1  UNL11       0.0625
     35 H           4.4246   -1.7999    1.2743 H       1  UNL11       0.0623
     36 H           6.0393    2.0387    0.2773 H       1  UNL11       0.0623
     37 H           3.7492    2.8652   -0.0055 H       1  UNL11       0.0625
@<TRIPOS>BOND
     1     1     2    2
     2     2     3   am
     3     2    16    1
     4     3     4    1
     5     3    26    1
     6     4     5    1
     7     4    27    1
     8     4    28    1
     9     5     6    2
    10     6     7    1
    11     7     8   am
    12     7    29    1
    13     8     9    2
    14     8    10    1
    15    10    11   ar
    16    11    12   ar
    17    11    30    1
    18    12    13   ar
    19    12    31    1
    20    13    14   ar
    21    13    32    1
    22    14    15   ar
    23    14    33    1
    24    15     5    1
    25    15    10   ar
    26    16    17   ar
    27    17    18   ar
    28    17    34    1
    29    18    19   ar
    30    18    35    1
    31    19    20    1
    32    19    24   ar
    33    20    21    1
    34    20    22    1
    35    20    23    1
    36    24    25   ar
    37    24    36    1
    38    25    16   ar
    39    25    37    1
@<TRIPOS>MOLECULE
*****
 37 39 0 0 0
SMALL
GASTEIGER

@<TRIPOS>ATOM
      1 O           2.4965    0.8740    1.3500 O.2     1  UNL11      -0.2702
      2 C           1.3202    1.2352    1.4699 C.2     1  UNL11       0.2444
      3 N           0.3228    0.5965    0.6458 N.am    1  UNL11      -0.3055
      4 C          -1.0461    0.8549    0.6075 C.3     1  UNL11       0.0605
      5 C          -2.0147   -0.1880    0.2817 C.2     1  UNL11       0.1319
      6 N          -3.2675   -0.2655    0.7319 N.2     1  UNL11      -0.0060
      7 N          -4.0887   -1.2659    0.4058 N.am    1  UNL11      -0.0355
      8 C          -3.7237   -2.2900   -0.4027 C.2     1  UNL11       0.4383
      9 O          -4.5012   -3.2341   -0.6991 O.2     1  UNL11      -0.2116
     10 C          -2.4374   -2.2782   -0.9096 C.ar    1  UNL11       0.1005
     11 C          -2.0266   -3.2979   -1.7434 C.ar    1  UNL11      -0.0441
     12 C          -0.7455   -3.2632   -2.2418 C.ar    1  UNL11      -0.0608
     13 C           0.0888   -2.2174   -1.8958 C.ar    1  UNL11      -0.0611
     14 C          -0.3282   -1.1854   -1.0485 C.ar    1  UNL11      -0.0517
     15 C          -1.6056   -1.2417   -0.5670 C.ar    1  UNL11       0.0205
     16 C           0.9437    2.2782    2.3902 C.ar    1  UNL11       0.0367
     17 C          -0.3357    2.2078    2.9554 C.ar    1  UNL11      -0.0491
     18 C          -0.8062    3.1613    3.8114 C.ar    1  UNL11      -0.0494
     19 C           0.0043    4.2326    4.1346 C.ar    1  UNL11       0.0549
     20 C          -0.5529    5.2622    5.0574 C.3     1  UNL11       0.4174
     21 F          -1.8299    4.9663    5.4506 F       1  UNL11      -0.1659
     22 F           0.2964    5.2703    6.1638 F       1  UNL11      -0.1659
     23 F          -0.5539    6.5199    4.4798 F       1  UNL11      -0.1659
     24 C           1.2768    4.3450    3.6064 C.ar    1  UNL11      -0.0494
     25 C           1.7140    3.3449    2.7343 C.ar    1  UNL11      -0.0491
     26 H           0.7475   -0.1422    0.0143 H       1  UNL11       0.1494
     27 H          -1.1909    1.7357   -0.1075 H       1  UNL11       0.0529
     28 H          -1.3297    1.3206    1.6043 H       1  UNL11       0.0529
     29 H          -5.0571   -1.2973    0.7593 H       1  UNL11       0.4829
     30 H          -2.6582   -4.1218   -2.0177 H       1  UNL11       0.0627
     31 H          -0.3677   -4.0493   -2.9086 H       1  UNL11       0.0618
     32 H           1.1117   -2.1281   -2.2586 H       1  UNL11       0.0618
     33 H           0.3445   -0.3821   -0.7839 H       1  UNL11       0.0624
     34 H          -0.9886    1.3617    2.7041 H       1  UNL11       0.0625
     35 H          -1.7952    3.1080    4.2456 H       1  UNL11       0.0623
     36 H           1.9217    5.1989    3.8598 H       1  UNL11       0.0623
     37 H           2.6885    3.4385    2.3364 H       1  UNL11       0.0625
@<TRIPOS>BOND
     1     1     2    2
     2     2     3   am
     3     2    16    1
     4     3     4    1
     5     3    26    1
     6     4     5    1
     7     4    27    1
     8     4    28    1
     9     5     6    2
    10     6     7    1
    11     7     8   am
    12     7    29    1
    13     8     9    2
    14     8    10    1
    15    10    11   ar
    16    11    12   ar
    17    11    30    1
    18    12    13   ar
    19    12    31    1
    20    13    14   ar
    21    13    32    1
    22    14    15   ar
    23    14    33    1
    24    15     5    1
    25    15    10   ar
    26    16    17   ar
    27    17    18   ar
    28    17    34    1
    29    18    19   ar
    30    18    35    1
    31    19    20    1
    32    19    24   ar
    33    20    21    1
    34    20    22    1
    35    20    23    1
    36    24    25   ar
    37    24    36    1
    38    25    16   ar
    39    25    37    1
@<TRIPOS>MOLECULE
*****
 37 39 0 0 0
SMALL
GASTEIGER

@<TRIPOS>ATOM
      1 O           2.5507    1.0993    0.9312 O.2     1  UNL11      -0.2702
      2 C           1.3876    1.5170    0.9634 C.2     1  UNL11       0.2444
      3 N           0.3228    0.5965    0.6458 N.am    1  UNL11      -0.3055
      4 C          -1.0461    0.8549    0.6075 C.3     1  UNL11       0.0605
      5 C          -2.0147   -0.1880    0.2817 C.2     1  UNL11       0.1319
      6 N          -1.7337   -1.4591   -0.0073 N.2     1  UNL11      -0.0060
      7 N          -2.6761   -2.3515   -0.3186 N.am    1  UNL11      -0.0355
      8 C          -3.9951   -2.0468   -0.3743 C.2     1  UNL11       0.4383
      9 O          -4.8772   -2.8919   -0.6766 O.2     1  UNL11      -0.2116
     10 C          -4.3642   -0.7459   -0.0860 C.ar    1  UNL11       0.1005
     11 C          -5.6979   -0.3943   -0.1234 C.ar    1  UNL11      -0.0441
     12 C          -6.0438    0.9032    0.1733 C.ar    1  UNL11      -0.0608
     13 C          -5.0543    1.8118    0.4968 C.ar    1  UNL11      -0.0611
     14 C          -3.7023    1.4545    0.5320 C.ar    1  UNL11      -0.0517
     15 C          -3.3839    0.1596    0.2344 C.ar    1  UNL11       0.0205
     16 C           1.0897    2.8888    1.2891 C.ar    1  UNL11       0.0367
     17 C           2.0490    3.8530    0.9557 C.ar    1  UNL11      -0.0491
     18 C           1.8838    5.1756    1.2501 C.ar    1  UNL11      -0.0494
     19 C           0.7324    5.5808    1.8975 C.ar    1  UNL11       0.0549
     20 C           0.5982    7.0303    2.2184 C.3     1  UNL11       0.4174
     21 F           1.6827    7.7540    1.8021 F       1  UNL11      -0.1659
     22 F          -0.5462    7.4571    1.5449 F       1  UNL11      -0.1659
     23 F           0.4279    7.2401    3.5758 F       1  UNL11      -0.1659
     24 C          -0.2462    4.6680    2.2438 C.ar    1  UNL11      -0.0494
     25 C          -0.0319    3.3253    1.9222 C.ar    1  UNL11      -0.0491
     26 H           0.6930   -0.3711    0.4189 H       1  UNL11       0.1494
     27 H          -1.1909    1.7357   -0.1075 H       1  UNL11       0.0529
     28 H          -1.3297    1.3206    1.6043 H       1  UNL11       0.0529
     29 H          -2.4335   -3.3318   -0.5282 H       1  UNL11       0.4829
     30 H          -6.4796   -1.0845   -0.3792 H       1  UNL11       0.0627
     31 H          -7.0898    1.2361    0.1577 H       1  UNL11       0.0618
     32 H          -5.2606    2.8518    0.7455 H       1  UNL11       0.0618
     33 H          -2.9444    2.1843    0.7788 H       1  UNL11       0.0624
     34 H           2.9683    3.5417    0.4426 H       1  UNL11       0.0625
     35 H           2.6260    5.9196    0.9948 H       1  UNL11       0.0623
     36 H          -1.1615    4.9884    2.7623 H       1  UNL11       0.0623
     37 H          -0.7859    2.6350    2.1896 H       1  UNL11       0.0625
@<TRIPOS>BOND
     1     1     2    2
     2     2     3   am
     3     2    16    1
     4     3     4    1
     5     3    26    1
     6     4     5    1
     7     4    27    1
     8     4    28    1
     9     5     6    2
    10     6     7    1
    11     7     8   am
    12     7    29    1
    13     8     9    2
    14     8    10    1
    15    10    11   ar
    16    11    12   ar
    17    11    30    1
    18    12    13   ar
    19    12    31    1
    20    13    14   ar
    21    13    32    1
    22    14    15   ar
    23    14    33    1
    24    15     5    1
    25    15    10   ar
    26    16    17   ar
    27    17    18   ar
    28    17    34    1
    29    18    19   ar
    30    18    35    1
    31    19    20    1
    32    19    24   ar
    33    20    21    1
    34    20    22    1
    35    20    23    1
    36    24    25   ar
    37    24    36    1
    38    25    16   ar
    39    25    37    1
@<TRIPOS>MOLECULE
*****
 37 39 0 0 0
SMALL
GASTEIGER

@<TRIPOS>ATOM
      1 O           2.2256   -0.6888    0.4872 O.2     1  UNL11      -0.2702
      2 C           0.9936   -0.6552    0.3904 C.2     1  UNL11       0.2444
      3 N           0.3228    0.5965    0.6458 N.am    1  UNL11      -0.3055
      4 C          -1.0461    0.8549    0.6075 C.3     1  UNL11       0.0605
      5 C          -2.0147   -0.1880    0.2817 C.2     1  UNL11       0.1319
      6 N          -2.0600   -0.8931   -0.8493 N.2     1  UNL11      -0.0060
      7 N          -2.9936   -1.8176   -1.0839 N.am    1  UNL11      -0.0355
      8 C          -3.9772   -2.1174   -0.2017 C.2     1  UNL11       0.4383
      9 O          -4.8589   -2.9848   -0.4336 O.2     1  UNL11      -0.2116
     10 C          -3.9952   -1.4266    0.9960 C.ar    1  UNL11       0.1005
     11 C          -4.9750   -1.7060    1.9264 C.ar    1  UNL11      -0.0441
     12 C          -4.9705   -1.0122    3.1137 C.ar    1  UNL11      -0.0608
     13 C          -3.9937   -0.0614    3.3398 C.ar    1  UNL11      -0.0611
     14 C          -3.0023    0.2225    2.3947 C.ar    1  UNL11      -0.0517
     15 C          -3.0273   -0.4806    1.2235 C.ar    1  UNL11       0.0205
     16 C           0.2334   -1.8315    0.0511 C.ar    1  UNL11       0.0367
     17 C          -0.9619   -1.6448   -0.6543 C.ar    1  UNL11      -0.0491
     18 C          -1.7755   -2.6865   -0.9952 C.ar    1  UNL11      -0.0494
     19 C          -1.4105   -3.9695   -0.6354 C.ar    1  UNL11       0.0549
     20 C          -2.3349   -5.0775   -1.0093 C.3     1  UNL11       0.4174
     21 F          -3.4409   -4.6245   -1.6761 F       1  UNL11      -0.1659
     22 F          -1.5921   -5.9201   -1.8363 F       1  UNL11      -0.1659
     23 F          -2.7550   -5.7898    0.1005 F       1  UNL11      -0.1659
     24 C          -0.2381   -4.2062    0.0576 C.ar    1  UNL11      -0.0494
     25 C           0.5616   -3.1083    0.3850 C.ar    1  UNL11      -0.0491
     26 H           1.0080    1.3678    0.8913 H       1  UNL11       0.1494
     27 H          -1.1909    1.7357   -0.1075 H       1  UNL11       0.0529
     28 H          -1.3297    1.3206    1.6043 H       1  UNL11       0.0529
     29 H          -3.0006   -2.3568   -1.9630 H       1  UNL11       0.4829
     30 H          -5.7458   -2.4361    1.7654 H       1  UNL11       0.0627
     31 H          -5.7273   -1.1947    3.8878 H       1  UNL11       0.0618
     32 H          -3.9311    0.5194    4.2590 H       1  UNL11       0.0618
     33 H          -2.2534    0.9769    2.5893 H       1  UNL11       0.0624
     34 H          -1.2623   -0.6293   -0.9437 H       1  UNL11       0.0625
     35 H          -2.6999   -2.5417   -1.5377 H       1  UNL11       0.0623
     36 H           0.0521   -5.2264    0.3479 H       1  UNL11       0.0623
     37 H           1.4565   -3.2990    0.9136 H       1  UNL11       0.0625
@<TRIPOS>BOND
     1     1     2    2
     2     2     3   am
     3     2    16    1
     4     3     4    1
     5     3    26    1
     6     4     5    1
     7     4    27    1
     8     4    28    1
     9     5     6    2
    10     6     7    1
    11     7     8   am
    12     7    29    1
    13     8     9    2
    14     8    10    1
    15    10    11   ar
    16    11    12   ar
    17    11    30    1
    18    12    13   ar
    19    12    31    1
    20    13    14   ar
    21    13    32    1
    22    14    15   ar
    23    14    33    1
    24    15     5    1
    25    15    10   ar
    26    16    17   ar
    27    17    18   ar
    28    17    34    1
    29    18    19   ar
    30    18    35    1
    31    19    20    1
    32    19    24   ar
    33    20    21    1
    34    20    22    1
    35    20    23    1
    36    24    25   ar
    37    24    36    1
    38    25    16   ar
    39    25    37    1
@<TRIPOS>MOLECULE
*****
 37 39 0 0 0
SMALL
GASTEIGER

@<TRIPOS>ATOM
      1 O           1.0885    2.6842    1.2401 O.2     1  UNL11      -0.2702
      2 C           1.3876    1.5170    0.9634 C.2     1  UNL11       0.2444
      3 N           0.3228    0.5965    0.6458 N.am    1  UNL11      -0.3055
      4 C          -1.0461    0.8549    0.6075 C.3     1  UNL11       0.0605
      5 C          -2.0147   -0.1880    0.2817 C.2     1  UNL11       0.1319
      6 N          -3.1895   -0.0084   -0.3232 N.2     1  UNL11      -0.0060
      7 N          -4.0341   -1.0126   -0.5672 N.am    1  UNL11      -0.0355
      8 C          -3.7781   -2.2968   -0.2194 C.2     1  UNL11       0.4383
      9 O          -4.5832   -3.2371   -0.4456 O.2     1  UNL11      -0.2116
     10 C          -2.5770   -2.5615    0.4124 C.ar    1  UNL11       0.1005
     11 C          -2.2725   -3.8569    0.7771 C.ar    1  UNL11      -0.0441
     12 C          -1.0698   -4.0991    1.3982 C.ar    1  UNL11      -0.0608
     13 C          -0.2070   -3.0470    1.6391 C.ar    1  UNL11      -0.0611
     14 C          -0.5179   -1.7338    1.2709 C.ar    1  UNL11      -0.0517
     15 C          -1.7181   -1.5188    0.6545 C.ar    1  UNL11       0.0205
     16 C           2.7573    1.0691    0.9726 C.ar    1  UNL11       0.0367
     17 C           3.1056    0.0431    0.0854 C.ar    1  UNL11      -0.0491
     18 C           4.3656   -0.4794    0.0363 C.ar    1  UNL11      -0.0494
     19 C           5.3330    0.0187    0.8878 C.ar    1  UNL11       0.0549
     20 C           6.6912   -0.5912    0.8168 C.3     1  UNL11       0.4174
     21 F           6.7619   -1.5870   -0.1194 F       1  UNL11      -0.1659
     22 F           7.5506    0.4510    0.4694 F       1  UNL11      -0.1659
     23 F           7.0829   -1.1112    2.0382 F       1  UNL11      -0.1659
     24 C           5.0400    1.0343    1.7786 C.ar    1  UNL11      -0.0494
     25 C           3.7363    1.5365    1.7927 C.ar    1  UNL11      -0.0491
     26 H           0.6930   -0.3711    0.4189 H       1  UNL11       0.1494
     27 H          -1.1909    1.7357   -0.1075 H       1  UNL11       0.0529
     28 H          -1.3297    1.3206    1.6043 H       1  UNL11       0.0529
     29 H          -4.9327   -0.8488   -1.0461 H       1  UNL11       0.4829
     30 H          -2.9331   -4.6856    0.6043 H       1  UNL11       0.0627
     31 H          -0.7783   -5.1107    1.7097 H       1  UNL11       0.0618
     32 H           0.7611   -3.1710    2.1225 H       1  UNL11       0.0618
     33 H           0.1684   -0.9250    1.4776 H       1  UNL11       0.0624
     34 H           2.3443   -0.3612   -0.5945 H       1  UNL11       0.0625
     35 H           4.6337   -1.2736   -0.6472 H       1  UNL11       0.0623
     36 H           5.8078    1.4293    2.4596 H       1  UNL11       0.0623
     37 H           3.5218    2.3135    2.4760 H       1  UNL11       0.0625
@<TRIPOS>BOND
     1     1     2    2
     2     2     3   am
     3     2    16    1
     4     3     4    1
     5     3    26    1
     6     4     5    1
     7     4    27    1
     8     4    28    1
     9     5     6    2
    10     6     7    1
    11     7     8   am
    12     7    29    1
    13     8     9    2
    14     8    10    1
    15    10    11   ar
    16    11    12   ar
    17    11    30    1
    18    12    13   ar
    19    12    31    1
    20    13    14   ar
    21    13    32    1
    22    14    15   ar
    23    14    33    1
    24    15     5    1
    25    15    10   ar
    26    16    17   ar
    27    17    18   ar
    28    17    34    1
    29    18    19   ar
    30    18    35    1
    31    19    20    1
    32    19    24   ar
    33    20    21    1
    34    20    22    1
    35    20    23    1
    36    24    25   ar
    37    24    36    1
    38    25    16   ar
    39    25    37    1
@<TRIPOS>MOLECULE
*****
 37 39 0 0 0
SMALL
GASTEIGER

@<TRIPOS>ATOM
      1 O           0.4362   -1.0908   -0.9156 O.2     1  UNL11      -0.2702
      2 C           1.0599   -0.3796   -0.1196 C.2     1  UNL11       0.2444
      3 N           0.3228    0.5965    0.6458 N.am    1  UNL11      -0.3055
      4 C          -1.0461    0.8549    0.6075 C.3     1  UNL11       0.0605
      5 C          -2.0147   -0.1880    0.2817 C.2     1  UNL11       0.1319
      6 N          -2.2109   -1.3185    0.9612 N.2     1  UNL11      -0.0060
      7 N          -3.1030   -2.2378    0.5863 N.am    1  UNL11      -0.0355
      8 C          -3.8813   -2.1085   -0.5151 C.2     1  UNL11       0.4383
      9 O          -4.7146   -2.9835   -0.8668 O.2     1  UNL11      -0.2116
     10 C          -3.7347   -0.9603   -1.2714 C.ar    1  UNL11       0.1005
     11 C          -4.5129   -0.7845   -2.3970 C.ar    1  UNL11      -0.0441
     12 C          -4.3559    0.3677   -3.1310 C.ar    1  UNL11      -0.0608
     13 C          -3.4297    1.3094   -2.7250 C.ar    1  UNL11      -0.0611
     14 C          -2.6396    1.1289   -1.5848 C.ar    1  UNL11      -0.0517
     15 C          -2.8147   -0.0234   -0.8719 C.ar    1  UNL11       0.0205
     16 C           2.4876   -0.4982    0.0359 C.ar    1  UNL11       0.0367
     17 C           3.1444   -1.4524   -0.7509 C.ar    1  UNL11      -0.0491
     18 C           4.4885   -1.6714   -0.6580 C.ar    1  UNL11      -0.0494
     19 C           5.2296   -0.9278    0.2403 C.ar    1  UNL11       0.0549
     20 C           6.6908   -1.2100    0.3255 C.3     1  UNL11       0.4174
     21 F           7.0764   -2.2012   -0.5360 F       1  UNL11      -0.1659
     22 F           7.3222   -0.0131   -0.0122 F       1  UNL11      -0.1659
     23 F           7.0677   -1.5735    1.6066 F       1  UNL11      -0.1659
     24 C           4.6285    0.0292    1.0362 C.ar    1  UNL11      -0.0494
     25 C           3.2501    0.2169    0.9060 C.ar    1  UNL11      -0.0491
     26 H           0.9544    1.1438    1.2988 H       1  UNL11       0.1494
     27 H          -1.1909    1.7357   -0.1075 H       1  UNL11       0.0529
     28 H          -1.3297    1.3206    1.6043 H       1  UNL11       0.0529
     29 H          -3.2429   -3.0996    1.1352 H       1  UNL11       0.4829
     30 H          -5.2325   -1.5079   -2.7316 H       1  UNL11       0.0627
     31 H          -4.9489    0.5575   -4.0351 H       1  UNL11       0.0618
     32 H          -3.2592    2.2437   -3.2581 H       1  UNL11       0.0618
     33 H          -1.9149    1.8748   -1.2912 H       1  UNL11       0.0624
     34 H           2.5648   -2.0499   -1.4667 H       1  UNL11       0.0625
     35 H           4.9950   -2.4102   -1.2640 H       1  UNL11       0.0623
     36 H           5.2163    0.6193    1.7542 H       1  UNL11       0.0623
     37 H           2.7994    0.9514    1.5175 H       1  UNL11       0.0625
@<TRIPOS>BOND
     1     1     2    2
     2     2     3   am
     3     2    16    1
     4     3     4    1
     5     3    26    1
     6     4     5    1
     7     4    27    1
     8     4    28    1
     9     5     6    2
    10     6     7    1
    11     7     8   am
    12     7    29    1
    13     8     9    2
    14     8    10    1
    15    10    11   ar
    16    11    12   ar
    17    11    30    1
    18    12    13   ar
    19    12    31    1
    20    13    14   ar
    21    13    32    1
    22    14    15   ar
    23    14    33    1
    24    15     5    1
    25    15    10   ar
    26    16    17   ar
    27    17    18   ar
    28    17    34    1
    29    18    19   ar
    30    18    35    1
    31    19    20    1
    32    19    24   ar
    33    20    21    1
    34    20    22    1
    35    20    23    1
    36    24    25   ar
    37    24    36    1
    38    25    16   ar
    39    25    37    1
@<TRIPOS>MOLECULE
*****
 37 39 0 0 0
SMALL
GASTEIGER

@<TRIPOS>ATOM
      1 O           0.9544    2.1233    2.2482 O.2     1  UNL11      -0.2702
      2 C           1.3202    1.2352    1.4699 C.2     1  UNL11       0.2444
      3 N           0.3228    0.5965    0.6458 N.am    1  UNL11      -0.3055
      4 C          -1.0461    0.8549    0.6075 C.3     1  UNL11       0.0605
      5 C          -2.0147   -0.1880    0.2817 C.2     1  UNL11       0.1319
      6 N          -2.4638   -0.4906   -0.9369 N.2     1  UNL11      -0.0060
      7 N          -3.3703   -1.4462   -1.1529 N.am    1  UNL11      -0.0355
      8 C          -3.9170   -2.1867   -0.1587 C.2     1  UNL11       0.4383
      9 O          -4.7774   -3.0806   -0.3695 O.2     1  UNL11      -0.2116
     10 C          -3.4994   -1.9303    1.1342 C.ar    1  UNL11       0.1005
     11 C          -4.0248   -2.6665    2.1762 C.ar    1  UNL11      -0.0441
     12 C          -3.5907   -2.3999    3.4535 C.ar    1  UNL11      -0.0608
     13 C          -2.6490   -1.4093    3.6567 C.ar    1  UNL11      -0.0611
     14 C          -2.1189   -0.6620    2.5997 C.ar    1  UNL11      -0.0517
     15 C          -2.5652   -0.9462    1.3400 C.ar    1  UNL11       0.0205
     16 C           2.6995    0.8254    1.3910 C.ar    1  UNL11       0.0367
     17 C           3.1629    0.3572    0.1552 C.ar    1  UNL11      -0.0491
     18 C           4.4411   -0.0883   -0.0209 C.ar    1  UNL11      -0.0494
     19 C           5.3102   -0.0773    1.0530 C.ar    1  UNL11       0.0549
     20 C           6.6913   -0.5896    0.8248 C.3     1  UNL11       0.4174
     21 F           6.8815   -1.0047   -0.4654 F       1  UNL11      -0.1659
     22 F           7.5383    0.4811    1.1104 F       1  UNL11      -0.1659
     23 F           6.9930   -1.6421    1.6713 F       1  UNL11      -0.1659
     24 C           4.9020    0.3794    2.2922 C.ar    1  UNL11      -0.0494
     25 C           3.5842    0.8247    2.4239 C.ar    1  UNL11      -0.0491
     26 H           0.7475   -0.1422    0.0143 H       1  UNL11       0.1494
     27 H          -1.1909    1.7357   -0.1075 H       1  UNL11       0.0529
     28 H          -1.3297    1.3206    1.6043 H       1  UNL11       0.0529
     29 H          -3.6939   -1.6680   -2.1067 H       1  UNL11       0.4829
     30 H          -4.7619   -3.4351    2.0383 H       1  UNL11       0.0627
     31 H          -3.9764   -2.9553    4.3183 H       1  UNL11       0.0618
     32 H          -2.2606   -1.1514    4.6410 H       1  UNL11       0.0618
     33 H          -1.3899    0.1144    2.7832 H       1  UNL11       0.0624
     34 H           2.4802    0.3426   -0.7044 H       1  UNL11       0.0625
     35 H           4.7979   -0.4522   -0.9748 H       1  UNL11       0.0623
     36 H           5.5914    0.3853    3.1489 H       1  UNL11       0.0623
     37 H           3.2814    1.1732    3.3745 H       1  UNL11       0.0625
@<TRIPOS>BOND
     1     1     2    2
     2     2     3   am
     3     2    16    1
     4     3     4    1
     5     3    26    1
     6     4     5    1
     7     4    27    1
     8     4    28    1
     9     5     6    2
    10     6     7    1
    11     7     8   am
    12     7    29    1
    13     8     9    2
    14     8    10    1
    15    10    11   ar
    16    11    12   ar
    17    11    30    1
    18    12    13   ar
    19    12    31    1
    20    13    14   ar
    21    13    32    1
    22    14    15   ar
    23    14    33    1
    24    15     5    1
    25    15    10   ar
    26    16    17   ar
    27    17    18   ar
    28    17    34    1
    29    18    19   ar
    30    18    35    1
    31    19    20    1
    32    19    24   ar
    33    20    21    1
    34    20    22    1
    35    20    23    1
    36    24    25   ar
    37    24    36    1
    38    25    16   ar
    39    25    37    1
@<TRIPOS>MOLECULE
*****
 37 39 0 0 0
SMALL
GASTEIGER

@<TRIPOS>ATOM
      1 O           0.5371    0.0031    2.8594 O.2     1  UNL11      -0.2702
      2 C           1.1105    0.1700    1.7769 C.2     1  UNL11       0.2444
      3 N           0.3228    0.5965    0.6458 N.am    1  UNL11      -0.3055
      4 C          -1.0461    0.8549    0.6075 C.3     1  UNL11       0.0605
      5 C          -2.0147   -0.1880    0.2817 C.2     1  UNL11       0.1319
      6 N          -2.8704   -0.1742   -0.7410 N.2     1  UNL11      -0.0060
      7 N          -3.7448   -1.1584   -0.9609 N.am    1  UNL11      -0.0355
      8 C          -3.8450   -2.2512   -0.1663 C.2     1  UNL11       0.4383
      9 O          -4.6777   -3.1713   -0.3755 O.2     1  UNL11      -0.2116
     10 C          -2.9886   -2.3365    0.9159 C.ar    1  UNL11       0.1005
     11 C          -3.0516   -3.4363    1.7467 C.ar    1  UNL11      -0.0441
     12 C          -2.1862   -3.5043    2.8132 C.ar    1  UNL11      -0.0608
     13 C          -1.2857   -2.4774    3.0225 C.ar    1  UNL11      -0.0611
     14 C          -1.2245   -1.3618    2.1807 C.ar    1  UNL11      -0.0517
     15 C          -2.0938   -1.3177    1.1276 C.ar    1  UNL11       0.0205
     16 C           2.5239   -0.0697    1.6297 C.ar    1  UNL11       0.0367
     17 C           3.1017   -1.0429    2.4544 C.ar    1  UNL11      -0.0491
     18 C           4.4370   -1.3244    2.4217 C.ar    1  UNL11      -0.0494
     19 C           5.2488   -0.6292    1.5462 C.ar    1  UNL11       0.0549
     20 C           6.7039   -0.9523    1.5542 C.3     1  UNL11       0.4174
     21 F           7.0117   -1.9257    2.4657 F       1  UNL11      -0.1659
     22 F           6.9943   -1.3981    0.2649 F       1  UNL11      -0.1659
     23 F           7.4743    0.1639    1.8301 F       1  UNL11      -0.1659
     24 C           4.7255    0.3378    0.7084 C.ar    1  UNL11      -0.0494
     25 C           3.3533    0.5915    0.7785 C.ar    1  UNL11      -0.0491
     26 H           0.9159    0.7140   -0.2256 H       1  UNL11       0.1494
     27 H          -1.1909    1.7357   -0.1075 H       1  UNL11       0.0529
     28 H          -1.3297    1.3206    1.6043 H       1  UNL11       0.0529
     29 H          -4.3894   -1.1287   -1.7654 H       1  UNL11       0.4829
     30 H          -3.7489   -4.2402    1.6039 H       1  UNL11       0.0627
     31 H          -2.1945   -4.3564    3.5055 H       1  UNL11       0.0618
     32 H          -0.5714   -2.4715    3.8446 H       1  UNL11       0.0618
     33 H          -0.5181   -0.5659    2.3689 H       1  UNL11       0.0624
     34 H           2.4661   -1.6001    3.1549 H       1  UNL11       0.0625
     35 H           4.8833   -2.0742    3.0606 H       1  UNL11       0.0623
     36 H           5.3709    0.8946    0.0136 H       1  UNL11       0.0623
     37 H           2.9620    1.3314    0.1335 H       1  UNL11       0.0625
@<TRIPOS>BOND
     1     1     2    2
     2     2     3   am
     3     2    16    1
     4     3     4    1
     5     3    26    1
     6     4     5    1
     7     4    27    1
     8     4    28    1
     9     5     6    2
    10     6     7    1
    11     7     8   am
    12     7    29    1
    13     8     9    2
    14     8    10    1
    15    10    11   ar
    16    11    12   ar
    17    11    30    1
    18    12    13   ar
    19    12    31    1
    20    13    14   ar
    21    13    32    1
    22    14    15   ar
    23    14    33    1
    24    15     5    1
    25    15    10   ar
    26    16    17   ar
    27    17    18   ar
    28    17    34    1
    29    18    19   ar
    30    18    35    1
    31    19    20    1
    32    19    24   ar
    33    20    21    1
    34    20    22    1
    35    20    23    1
    36    24    25   ar
    37    24    36    1
    38    25    16   ar
    39    25    37    1
@<TRIPOS>MOLECULE
*****
 37 39 0 0 0
SMALL
GASTEIGER

@<TRIPOS>ATOM
      1 O           0.2752   -1.6211    1.2605 O.2     1  UNL11      -0.2702
      2 C           0.9790   -0.6460    0.9737 C.2     1  UNL11       0.2444
      3 N           0.3228    0.5965    0.6458 N.am    1  UNL11      -0.3055
      4 C          -1.0461    0.8549    0.6075 C.3     1  UNL11       0.0605
      5 C          -2.0147   -0.1880    0.2817 C.2     1  UNL11       0.1319
      6 N          -2.4638   -0.4906   -0.9369 N.2     1  UNL11      -0.0060
      7 N          -3.3703   -1.4462   -1.1529 N.am    1  UNL11      -0.0355
      8 C          -3.9170   -2.1867   -0.1587 C.2     1  UNL11       0.4383
      9 O          -4.7774   -3.0806   -0.3695 O.2     1  UNL11      -0.2116
     10 C          -3.4994   -1.9303    1.1342 C.ar    1  UNL11       0.1005
     11 C          -4.0248   -2.6665    2.1762 C.ar    1  UNL11      -0.0441
     12 C          -3.5907   -2.3999    3.4535 C.ar    1  UNL11      -0.0608
     13 C          -2.6490   -1.4093    3.6567 C.ar    1  UNL11      -0.0611
     14 C          -2.1189   -0.6620    2.5997 C.ar    1  UNL11      -0.0517
     15 C          -2.5652   -0.9462    1.3400 C.ar    1  UNL11       0.0205
     16 C           2.4168   -0.7385    0.9449 C.ar    1  UNL11       0.0367
     17 C           3.0981    0.0922    0.0467 C.ar    1  UNL11      -0.0491
     18 C           4.4562    0.0604   -0.0867 C.ar    1  UNL11      -0.0494
     19 C           5.1869   -0.8184    0.6897 C.ar    1  UNL11       0.0549
     20 C           6.6654   -0.8363    0.5009 C.3     1  UNL11       0.4174
     21 F           7.0754    0.0580   -0.4505 F       1  UNL11      -0.1659
     22 F           7.2040   -0.4932    1.7409 F       1  UNL11      -0.1659
     23 F           7.1202   -2.0937    0.1435 F       1  UNL11      -0.1659
     24 C           4.5613   -1.6559    1.5941 C.ar    1  UNL11      -0.0494
     25 C           3.1694   -1.5878    1.6946 C.ar    1  UNL11      -0.0491
     26 H           1.0204    1.3638    0.4235 H       1  UNL11       0.1494
     27 H          -1.1909    1.7357   -0.1075 H       1  UNL11       0.0529
     28 H          -1.3297    1.3206    1.6043 H       1  UNL11       0.0529
     29 H          -3.6939   -1.6680   -2.1067 H       1  UNL11       0.4829
     30 H          -4.7619   -3.4351    2.0383 H       1  UNL11       0.0627
     31 H          -3.9764   -2.9553    4.3183 H       1  UNL11       0.0618
     32 H          -2.2606   -1.1514    4.6410 H       1  UNL11       0.0618
     33 H          -1.3899    0.1144    2.7832 H       1  UNL11       0.0624
     34 H           2.5271    0.7931   -0.5762 H       1  UNL11       0.0625
     35 H           4.9818    0.7003   -0.7823 H       1  UNL11       0.0623
     36 H           5.1411   -2.3585    2.2101 H       1  UNL11       0.0623
     37 H           2.7000   -2.2307    2.3895 H       1  UNL11       0.0625
@<TRIPOS>BOND
     1     1     2    2
     2     2     3   am
     3     2    16    1
     4     3     4    1
     5     3    26    1
     6     4     5    1
     7     4    27    1
     8     4    28    1
     9     5     6    2
    10     6     7    1
    11     7     8   am
    12     7    29    1
    13     8     9    2
    14     8    10    1
    15    10    11   ar
    16    11    12   ar
    17    11    30    1
    18    12    13   ar
    19    12    31    1
    20    13    14   ar
    21    13    32    1
    22    14    15   ar
    23    14    33    1
    24    15     5    1
    25    15    10   ar
    26    16    17   ar
    27    17    18   ar
    28    17    34    1
    29    18    19   ar
    30    18    35    1
    31    19    20    1
    32    19    24   ar
    33    20    21    1
    34    20    22    1
    35    20    23    1
    36    24    25   ar
    37    24    36    1
    38    25    16   ar
    39    25    37    1
@<TRIPOS>MOLECULE
*****
 37 39 0 0 0
SMALL
GASTEIGER

@<TRIPOS>ATOM
      1 O           2.2149   -0.6745    0.9655 O.2     1  UNL11      -0.2702
      2 C           0.9790   -0.6460    0.9737 C.2     1  UNL11       0.2444
      3 N           0.3228    0.5965    0.6458 N.am    1  UNL11      -0.3055
      4 C          -1.0461    0.8549    0.6075 C.3     1  UNL11       0.0605
      5 C          -2.0147   -0.1880    0.2817 C.2     1  UNL11       0.1319
      6 N          -2.6183   -0.9994    1.1509 N.2     1  UNL11      -0.0060
      7 N          -3.4783   -1.9474    0.7727 N.am    1  UNL11      -0.0355
      8 C          -3.8095   -2.1732   -0.5215 C.2     1  UNL11       0.4383
      9 O          -4.6151   -3.0746   -0.8711 O.2     1  UNL11      -0.2116
     10 C          -3.2231   -1.3697   -1.4819 C.ar    1  UNL11       0.1005
     11 C          -3.5381   -1.5604   -2.8116 C.ar    1  UNL11      -0.0441
     12 C          -2.9489   -0.7457   -3.7497 C.ar    1  UNL11      -0.0608
     13 C          -2.0638    0.2325   -3.3384 C.ar    1  UNL11      -0.0611
     14 C          -1.7435    0.4232   -1.9902 C.ar    1  UNL11      -0.0517
     15 C          -2.3425   -0.3979   -1.0771 C.ar    1  UNL11       0.0205
     16 C           0.2020   -1.8098    1.3181 C.ar    1  UNL11       0.0367
     17 C          -1.0409   -1.5974    1.9273 C.ar    1  UNL11      -0.0491
     18 C          -1.8413   -2.6288    2.3258 C.ar    1  UNL11      -0.0494
     19 C          -1.4152   -3.9272    2.1218 C.ar    1  UNL11       0.0549
     20 C          -2.3090   -5.0252    2.5881 C.3     1  UNL11       0.4174
     21 F          -3.4541   -4.5485    3.1665 F       1  UNL11      -0.1659
     22 F          -2.6232   -5.7611    1.4457 F       1  UNL11      -0.1659
     23 F          -1.6721   -5.8523    3.4968 F       1  UNL11      -0.1659
     24 C          -0.1983   -4.1890    1.5206 C.ar    1  UNL11      -0.0494
     25 C           0.5864   -3.1007    1.1306 C.ar    1  UNL11      -0.0491
     26 H           1.0204    1.3638    0.4235 H       1  UNL11       0.1494
     27 H          -1.1909    1.7357   -0.1075 H       1  UNL11       0.0529
     28 H          -1.3297    1.3206    1.6043 H       1  UNL11       0.0529
     29 H          -3.9399   -2.5556    1.4660 H       1  UNL11       0.4829
     30 H          -4.2179   -2.3194   -3.1504 H       1  UNL11       0.0627
     31 H          -3.1638   -0.8550   -4.8208 H       1  UNL11       0.0618
     32 H          -1.5667    0.9125   -4.0287 H       1  UNL11       0.0618
     33 H          -1.0413    1.1887   -1.6922 H       1  UNL11       0.0624
     34 H          -1.3885   -0.5697    2.0957 H       1  UNL11       0.0625
     35 H          -2.8000   -2.4645    2.7986 H       1  UNL11       0.0623
     36 H           0.1440   -5.2217    1.3608 H       1  UNL11       0.0623
     37 H           1.5144   -3.3104    0.6706 H       1  UNL11       0.0625
@<TRIPOS>BOND
     1     1     2    2
     2     2     3   am
     3     2    16    1
     4     3     4    1
     5     3    26    1
     6     4     5    1
     7     4    27    1
     8     4    28    1
     9     5     6    2
    10     6     7    1
    11     7     8   am
    12     7    29    1
    13     8     9    2
    14     8    10    1
    15    10    11   ar
    16    11    12   ar
    17    11    30    1
    18    12    13   ar
    19    12    31    1
    20    13    14   ar
    21    13    32    1
    22    14    15   ar
    23    14    33    1
    24    15     5    1
    25    15    10   ar
    26    16    17   ar
    27    17    18   ar
    28    17    34    1
    29    18    19   ar
    30    18    35    1
    31    19    20    1
    32    19    24   ar
    33    20    21    1
    34    20    22    1
    35    20    23    1
    36    24    25   ar
    37    24    36    1
    38    25    16   ar
    39    25    37    1
@<TRIPOS>MOLECULE
*****
 37 39 0 0 0
SMALL
GASTEIGER

@<TRIPOS>ATOM
      1 O           1.0885    2.6842    1.2401 O.2     1  UNL11      -0.2702
      2 C           1.3876    1.5170    0.9634 C.2     1  UNL11       0.2444
      3 N           0.3228    0.5965    0.6458 N.am    1  UNL11      -0.3055
      4 C          -1.0461    0.8549    0.6075 C.3     1  UNL11       0.0605
      5 C          -2.0147   -0.1880    0.2817 C.2     1  UNL11       0.1319
      6 N          -2.6183   -0.9994    1.1509 N.2     1  UNL11      -0.0060
      7 N          -3.4783   -1.9474    0.7727 N.am    1  UNL11      -0.0355
      8 C          -3.8095   -2.1732   -0.5215 C.2     1  UNL11       0.4383
      9 O          -4.6151   -3.0746   -0.8711 O.2     1  UNL11      -0.2116
     10 C          -3.2231   -1.3697   -1.4819 C.ar    1  UNL11       0.1005
     11 C          -3.5381   -1.5604   -2.8116 C.ar    1  UNL11      -0.0441
     12 C          -2.9489   -0.7457   -3.7497 C.ar    1  UNL11      -0.0608
     13 C          -2.0638    0.2325   -3.3384 C.ar    1  UNL11      -0.0611
     14 C          -1.7435    0.4232   -1.9902 C.ar    1  UNL11      -0.0517
     15 C          -2.3425   -0.3979   -1.0771 C.ar    1  UNL11       0.0205
     16 C           2.7573    1.0691    0.9726 C.ar    1  UNL11       0.0367
     17 C           3.1056    0.0431    0.0854 C.ar    1  UNL11      -0.0491
     18 C           4.3656   -0.4794    0.0363 C.ar    1  UNL11      -0.0494
     19 C           5.3330    0.0187    0.8878 C.ar    1  UNL11       0.0549
     20 C           6.6912   -0.5912    0.8168 C.3     1  UNL11       0.4174
     21 F           6.7619   -1.5870   -0.1194 F       1  UNL11      -0.1659
     22 F           7.5506    0.4510    0.4694 F       1  UNL11      -0.1659
     23 F           7.0829   -1.1112    2.0382 F       1  UNL11      -0.1659
     24 C           5.0400    1.0343    1.7786 C.ar    1  UNL11      -0.0494
     25 C           3.7363    1.5365    1.7927 C.ar    1  UNL11      -0.0491
     26 H           0.6930   -0.3711    0.4189 H       1  UNL11       0.1494
     27 H          -1.1909    1.7357   -0.1075 H       1  UNL11       0.0529
     28 H          -1.3297    1.3206    1.6043 H       1  UNL11       0.0529
     29 H          -3.9399   -2.5556    1.4660 H       1  UNL11       0.4829
     30 H          -4.2179   -2.3194   -3.1504 H       1  UNL11       0.0627
     31 H          -3.1638   -0.8550   -4.8208 H       1  UNL11       0.0618
     32 H          -1.5667    0.9125   -4.0287 H       1  UNL11       0.0618
     33 H          -1.0413    1.1887   -1.6922 H       1  UNL11       0.0624
     34 H           2.3443   -0.3612   -0.5945 H       1  UNL11       0.0625
     35 H           4.6337   -1.2736   -0.6472 H       1  UNL11       0.0623
     36 H           5.8078    1.4293    2.4596 H       1  UNL11       0.0623
     37 H           3.5218    2.3135    2.4760 H       1  UNL11       0.0625
@<TRIPOS>BOND
     1     1     2    2
     2     2     3   am
     3     2    16    1
     4     3     4    1
     5     3    26    1
     6     4     5    1
     7     4    27    1
     8     4    28    1
     9     5     6    2
    10     6     7    1
    11     7     8   am
    12     7    29    1
    13     8     9    2
    14     8    10    1
    15    10    11   ar
    16    11    12   ar
    17    11    30    1
    18    12    13   ar
    19    12    31    1
    20    13    14   ar
    21    13    32    1
    22    14    15   ar
    23    14    33    1
    24    15     5    1
    25    15    10   ar
    26    16    17   ar
    27    17    18   ar
    28    17    34    1
    29    18    19   ar
    30    18    35    1
    31    19    20    1
    32    19    24   ar
    33    20    21    1
    34    20    22    1
    35    20    23    1
    36    24    25   ar
    37    24    36    1
    38    25    16   ar
    39    25    37    1
