@<TRIPOS>MOLECULE
*****
 36 37 0 0 0
SMALL
GASTEIGER

@<TRIPOS>ATOM
      1 C           0.2672    6.4170   -0.2717 C.3     1  UNL11      -0.0397
      2 C           0.5028    4.9574   -0.3313 C.ar    1  UNL11      -0.0504
      3 C           0.4359    4.1575    0.8006 C.ar    1  UNL11      -0.0585
      4 C           0.6591    2.8024    0.7075 C.ar    1  UNL11      -0.0561
      5 C           0.9549    2.1792   -0.4838 C.ar    1  UNL11      -0.0196
      6 C           1.1872    0.7095   -0.5135 C.3     1  UNL11       0.0983
      7 O           0.4528    0.1202    0.4853 O.3     1  UNL11      -0.2749
      8 N          -0.8545    0.3661    0.2769 N.am    1  UNL11      -0.1902
      9 C          -1.3106    1.1223   -0.8242 C.2     1  UNL11       0.2668
     10 O          -2.5305    1.3423   -0.9793 O.2     1  UNL11      -0.2681
     11 C          -0.3425    1.6424   -1.7730 C.ar    1  UNL11       0.0408
     12 C           1.0326    1.4256   -1.6433 C.ar    1  UNL11      -0.0494
     13 C           1.8773    1.9577   -2.5700 C.ar    1  UNL11      -0.0589
     14 C           1.3588    2.7007   -3.6176 C.ar    1  UNL11      -0.0316
     15 C           0.0115    2.9317   -3.7716 C.ar    1  UNL11       0.1223
     16 N          -0.4830    3.7095   -4.8682 N.4     1  UNL11       0.0060
     17 O           0.2362    4.5943   -5.3307 O.2     1  UNL11      -0.1300
     18 O          -1.7155    3.4987   -5.4105 O.2     1  UNL11      -0.3961
     19 C          -0.8309    2.3855   -2.8249 C.ar    1  UNL11      -0.0195
     20 C           1.0202    2.9805   -1.6043 C.ar    1  UNL11      -0.0561
     21 C           0.7984    4.3464   -1.5305 C.ar    1  UNL11      -0.0585
     22 H          -0.0929    6.7173    0.7329 H       1  UNL11       0.0278
     23 H          -0.5290    6.7338   -0.9945 H       1  UNL11       0.0278
     24 H           1.2287    6.9160   -0.4898 H       1  UNL11       0.0278
     25 H           0.1993    4.6603    1.7436 H       1  UNL11       0.0620
     26 H           0.6095    2.1751    1.5844 H       1  UNL11       0.0621
     27 H           0.8094    0.2682   -1.4811 H       1  UNL11       0.0634
     28 H           2.2621    0.4923   -0.5056 H       1  UNL11       0.0634
     29 H          -1.5501   -0.0311    0.9737 H       1  UNL11       0.1828
     30 H           1.3804    0.8342   -0.7990 H       1  UNL11       0.0625
     31 H           2.9563    1.8001   -2.4916 H       1  UNL11       0.0618
     32 H           2.0288    3.1211   -4.3479 H       1  UNL11       0.0640
     33 H          -1.8911    2.5568   -2.9225 H       1  UNL11       0.0648
     34 H           1.2480    2.5133   -2.5520 H       1  UNL11       0.0621
     35 H           0.8532    4.9660   -2.4185 H       1  UNL11       0.0620
     36 H          -2.2707    2.8274   -5.0653 H       1  UNL11       0.3292
@<TRIPOS>BOND
     1     1     2    1
     2     1    22    1
     3     1    23    1
     4     1    24    1
     5     2     3   ar
     6     3     4   ar
     7     3    25    1
     8     4     5   ar
     9     4    26    1
    10     5     6    1
    11     5    20   ar
    12     6     7    1
    13     6    27    1
    14     6    28    1
    15     7     8    1
    16     8     9   am
    17     8    29    1
    18     9    10    2
    19     9    11    1
    20    11    12   ar
    21    12    13   ar
    22    12    30    1
    23    13    14   ar
    24    13    31    1
    25    14    15   ar
    26    14    32    1
    27    15    16    1
    28    15    19   ar
    29    16    17    2
    30    16    18    1
    31    19    11   ar
    32    19    33    1
    33    20    21   ar
    34    20    34    1
    35    21     2   ar
    36    21    35    1
    37    18    36    1
@<TRIPOS>MOLECULE
*****
 36 37 0 0 0
SMALL
GASTEIGER

@<TRIPOS>ATOM
      1 C           0.3592    6.4362   -0.4999 C.3     1  UNL11      -0.0397
      2 C           0.5717    4.9718   -0.5055 C.ar    1  UNL11      -0.0504
      3 C           1.4005    4.3552   -1.4319 C.ar    1  UNL11      -0.0585
      4 C           1.5763    2.9902   -1.4063 C.ar    1  UNL11      -0.0561
      5 C           0.9549    2.1792   -0.4838 C.ar    1  UNL11      -0.0196
      6 C           1.1872    0.7095   -0.5135 C.3     1  UNL11       0.0983
      7 O           0.4528    0.1202    0.4853 O.3     1  UNL11      -0.2749
      8 N          -0.8545    0.3661    0.2769 N.am    1  UNL11      -0.1902
      9 C          -1.3880    0.5474   -1.0173 C.2     1  UNL11       0.2668
     10 O          -2.6041    0.7873   -1.1728 O.2     1  UNL11      -0.2681
     11 C          -0.5038    0.4529   -2.1650 C.ar    1  UNL11       0.0408
     12 C          -0.7181    1.1733   -3.3438 C.ar    1  UNL11      -0.0494
     13 C           0.1518    1.0204   -4.3809 C.ar    1  UNL11      -0.0589
     14 C           1.2263    0.1568   -4.2473 C.ar    1  UNL11      -0.0316
     15 C           1.4630   -0.5657   -3.1008 C.ar    1  UNL11       0.1223
     16 N           2.5849   -1.4514   -3.0055 N.4     1  UNL11       0.0060
     17 O           3.5974   -1.1867   -3.6527 O.2     1  UNL11      -0.1300
     18 O           2.5642   -2.5680   -2.2244 O.2     1  UNL11      -0.3961
     19 C           0.5733   -0.3993   -2.0594 C.ar    1  UNL11      -0.0195
     20 C           0.1323    2.7989    0.4335 C.ar    1  UNL11      -0.0561
     21 C          -0.0569    4.1716    0.4236 C.ar    1  UNL11      -0.0585
     22 H           1.0424    6.9362   -1.2156 H       1  UNL11       0.0278
     23 H           0.5838    6.8794    0.5051 H       1  UNL11       0.0278
     24 H          -0.6903    6.6188   -0.7935 H       1  UNL11       0.0278
     25 H           1.8917    5.0068   -2.1614 H       1  UNL11       0.0620
     26 H           2.2187    2.5046   -2.1249 H       1  UNL11       0.0621
     27 H           0.8094    0.2682   -1.4811 H       1  UNL11       0.0634
     28 H           2.2621    0.4923   -0.5056 H       1  UNL11       0.0634
     29 H          -1.4894    0.4207    1.1260 H       1  UNL11       0.1828
     30 H          -1.5798    1.8358   -3.3897 H       1  UNL11       0.0625
     31 H           0.0068    1.5746   -5.3121 H       1  UNL11       0.0618
     32 H           1.9115    0.0369   -5.0690 H       1  UNL11       0.0640
     33 H           0.7360   -0.9586   -1.1519 H       1  UNL11       0.0648
     34 H          -0.3643    2.1831    1.1700 H       1  UNL11       0.0621
     35 H          -0.7066    4.6472    1.1497 H       1  UNL11       0.0620
     36 H           1.7979   -2.7782   -1.7278 H       1  UNL11       0.3292
@<TRIPOS>BOND
     1     1     2    1
     2     1    22    1
     3     1    23    1
     4     1    24    1
     5     2     3   ar
     6     3     4   ar
     7     3    25    1
     8     4     5   ar
     9     4    26    1
    10     5     6    1
    11     5    20   ar
    12     6     7    1
    13     6    27    1
    14     6    28    1
    15     7     8    1
    16     8     9   am
    17     8    29    1
    18     9    10    2
    19     9    11    1
    20    11    12   ar
    21    12    13   ar
    22    12    30    1
    23    13    14   ar
    24    13    31    1
    25    14    15   ar
    26    14    32    1
    27    15    16    1
    28    15    19   ar
    29    16    17    2
    30    16    18    1
    31    19    11   ar
    32    19    33    1
    33    20    21   ar
    34    20    34    1
    35    21     2   ar
    36    21    35    1
    37    18    36    1
@<TRIPOS>MOLECULE
*****
 36 37 0 0 0
SMALL
GASTEIGER

@<TRIPOS>ATOM
      1 C           0.1845    6.4081   -0.4761 C.3     1  UNL11      -0.0397
      2 C           0.4389    4.9504   -0.4865 C.ar    1  UNL11      -0.0504
      3 C          -0.3323    4.0774   -1.2405 C.ar    1  UNL11      -0.0585
      4 C          -0.0657    2.7270   -1.2275 C.ar    1  UNL11      -0.0561
      5 C           0.9549    2.1792   -0.4838 C.ar    1  UNL11      -0.0196
      6 C           1.1872    0.7095   -0.5135 C.3     1  UNL11       0.0983
      7 O           0.4528    0.1202    0.4853 O.3     1  UNL11      -0.2749
      8 N          -0.8545    0.3661    0.2769 N.am    1  UNL11      -0.1902
      9 C          -1.3880    0.5474   -1.0173 C.2     1  UNL11       0.2668
     10 O          -2.6041    0.7873   -1.1728 O.2     1  UNL11      -0.2681
     11 C          -0.5038    0.4529   -2.1650 C.ar    1  UNL11       0.0408
     12 C           0.8637    0.1881   -2.0441 C.ar    1  UNL11      -0.0494
     13 C           1.6286    0.1269   -3.1696 C.ar    1  UNL11      -0.0589
     14 C           1.0383    0.3284   -4.4063 C.ar    1  UNL11      -0.0316
     15 C          -0.3035    0.5912   -4.5571 C.ar    1  UNL11       0.1223
     16 N          -0.8735    0.7973   -5.8551 N.4     1  UNL11       0.0060
     17 O          -0.3597    0.2289   -6.8180 O.2     1  UNL11      -0.1300
     18 O          -1.9598    1.5964   -6.0526 O.2     1  UNL11      -0.3961
     19 C          -1.0646    0.6493   -3.4076 C.ar    1  UNL11      -0.0195
     20 C           1.7167    3.0528    0.2635 C.ar    1  UNL11      -0.0561
     21 C           1.4638    4.4153    0.2630 C.ar    1  UNL11      -0.0585
     22 H          -0.5767    6.6806   -1.2346 H       1  UNL11       0.0278
     23 H           1.1073    6.9873   -0.7402 H       1  UNL11       0.0278
     24 H          -0.1802    6.6725    0.5328 H       1  UNL11       0.0278
     25 H          -1.1411    4.5207   -1.8298 H       1  UNL11       0.0620
     26 H          -0.6626    2.0427   -1.8110 H       1  UNL11       0.0621
     27 H           0.8094    0.2682   -1.4811 H       1  UNL11       0.0634
     28 H           2.2621    0.4923   -0.5056 H       1  UNL11       0.0634
     29 H          -1.4894    0.4207    1.1260 H       1  UNL11       0.1828
     30 H           1.2702    0.0392   -1.0460 H       1  UNL11       0.0625
     31 H           2.6997   -0.0810   -3.1011 H       1  UNL11       0.0618
     32 H           1.6454    0.2807   -5.2941 H       1  UNL11       0.0640
     33 H          -2.1184    0.8582   -3.5006 H       1  UNL11       0.0648
     34 H           2.5261    2.6464    0.8535 H       1  UNL11       0.0621
     35 H           2.0694    5.0921    0.8552 H       1  UNL11       0.0620
     36 H          -2.3581    2.0336   -5.3259 H       1  UNL11       0.3292
@<TRIPOS>BOND
     1     1     2    1
     2     1    22    1
     3     1    23    1
     4     1    24    1
     5     2     3   ar
     6     3     4   ar
     7     3    25    1
     8     4     5   ar
     9     4    26    1
    10     5     6    1
    11     5    20   ar
    12     6     7    1
    13     6    27    1
    14     6    28    1
    15     7     8    1
    16     8     9   am
    17     8    29    1
    18     9    10    2
    19     9    11    1
    20    11    12   ar
    21    12    13   ar
    22    12    30    1
    23    13    14   ar
    24    13    31    1
    25    14    15   ar
    26    14    32    1
    27    15    16    1
    28    15    19   ar
    29    16    17    2
    30    16    18    1
    31    19    11   ar
    32    19    33    1
    33    20    21   ar
    34    20    34    1
    35    21     2   ar
    36    21    35    1
    37    18    36    1
@<TRIPOS>MOLECULE
*****
 36 37 0 0 0
SMALL
GASTEIGER

@<TRIPOS>ATOM
      1 C          -0.6091   -1.4643   -5.5661 C.3     1  UNL11      -0.0397
      2 C          -0.1519   -0.9081   -4.2734 C.ar    1  UNL11      -0.0504
      3 C          -1.0004   -0.8004   -3.1808 C.ar    1  UNL11      -0.0585
      4 C          -0.5402   -0.2795   -1.9927 C.ar    1  UNL11      -0.0561
      5 C           0.7554    0.1543   -1.8251 C.ar    1  UNL11      -0.0196
      6 C           1.1872    0.7095   -0.5135 C.3     1  UNL11       0.0983
      7 O           0.4528    0.1202    0.4853 O.3     1  UNL11      -0.2749
      8 N          -0.8545    0.3661    0.2769 N.am    1  UNL11      -0.1902
      9 C          -1.3048    1.5352   -0.3733 C.2     1  UNL11       0.2668
     10 O          -2.5266    1.7373   -0.5380 O.2     1  UNL11      -0.2681
     11 C          -0.3288    2.5003   -0.8465 C.ar    1  UNL11       0.0408
     12 C           0.9587    2.1350   -1.2510 C.ar    1  UNL11      -0.0494
     13 C           1.8204    3.1025   -1.6715 C.ar    1  UNL11      -0.0589
     14 C           1.4054    4.4239   -1.6887 C.ar    1  UNL11      -0.0316
     15 C           0.1460    4.8141   -1.2964 C.ar    1  UNL11       0.1223
     16 N          -0.2417    6.1929   -1.3262 N.4     1  UNL11       0.0060
     17 O           0.5791    7.0245   -1.7117 O.2     1  UNL11      -0.1300
     18 O          -1.4831    6.6064   -0.9448 O.2     1  UNL11      -0.3961
     19 C          -0.7151    3.8221   -0.8738 C.ar    1  UNL11      -0.0195
     20 C           1.5929    0.0448   -2.9153 C.ar    1  UNL11      -0.0561
     21 C           1.1479   -0.4771   -4.1194 C.ar    1  UNL11      -0.0585
     22 H          -1.6295   -1.8877   -5.4739 H       1  UNL11       0.0278
     23 H           0.0475   -2.3074   -5.9050 H       1  UNL11       0.0278
     24 H          -0.6111   -0.6376   -6.2992 H       1  UNL11       0.0278
     25 H          -2.0286   -1.1483   -3.3217 H       1  UNL11       0.0620
     26 H          -1.1956   -0.1921   -1.1396 H       1  UNL11       0.0621
     27 H           2.2647    0.4450   -0.3067 H       1  UNL11       0.0634
     28 H           1.1657    1.8057   -0.5368 H       1  UNL11       0.0634
     29 H          -1.5545   -0.3551    0.6189 H       1  UNL11       0.1828
     30 H           1.2272    1.0814   -1.2148 H       1  UNL11       0.0625
     31 H           2.8316    2.8416   -1.9949 H       1  UNL11       0.0618
     32 H           2.0889    5.1867   -2.0203 H       1  UNL11       0.0640
     33 H          -1.7065    4.1046   -0.5574 H       1  UNL11       0.0648
     34 H           2.6160    0.3762   -2.8071 H       1  UNL11       0.0621
     35 H           1.8157   -0.5576   -4.9697 H       1  UNL11       0.0620
     36 H          -2.1152    5.9809   -0.6497 H       1  UNL11       0.3292
@<TRIPOS>BOND
     1     1     2    1
     2     1    22    1
     3     1    23    1
     4     1    24    1
     5     2     3   ar
     6     3     4   ar
     7     3    25    1
     8     4     5   ar
     9     4    26    1
    10     5     6    1
    11     5    20   ar
    12     6     7    1
    13     6    27    1
    14     6    28    1
    15     7     8    1
    16     8     9   am
    17     8    29    1
    18     9    10    2
    19     9    11    1
    20    11    12   ar
    21    12    13   ar
    22    12    30    1
    23    13    14   ar
    24    13    31    1
    25    14    15   ar
    26    14    32    1
    27    15    16    1
    28    15    19   ar
    29    16    17    2
    30    16    18    1
    31    19    11   ar
    32    19    33    1
    33    20    21   ar
    34    20    34    1
    35    21     2   ar
    36    21    35    1
    37    18    36    1
@<TRIPOS>MOLECULE
*****
 36 37 0 0 0
SMALL
GASTEIGER

@<TRIPOS>ATOM
      1 C           0.4005    6.4416   -0.4459 C.3     1  UNL11      -0.0397
      2 C           0.6035    4.9760   -0.4646 C.ar    1  UNL11      -0.0504
      3 C           1.7960    4.4067   -0.8878 C.ar    1  UNL11      -0.0585
      4 C           1.9502    3.0389   -0.8901 C.ar    1  UNL11      -0.0561
      5 C           0.9549    2.1792   -0.4838 C.ar    1  UNL11      -0.0196
      6 C           1.1872    0.7095   -0.5135 C.3     1  UNL11       0.0983
      7 O           0.4528    0.1202    0.4853 O.3     1  UNL11      -0.2749
      8 N          -0.8545    0.3661    0.2769 N.am    1  UNL11      -0.1902
      9 C          -1.5235   -0.0646   -0.8890 C.2     1  UNL11       0.2668
     10 O          -2.7346    0.1928   -1.0555 O.2     1  UNL11      -0.2681
     11 C          -0.7846   -0.8094   -1.8926 C.ar    1  UNL11       0.0408
     12 C           0.5857   -0.6327   -2.1062 C.ar    1  UNL11      -0.0494
     13 C           1.2044   -1.3621   -3.0762 C.ar    1  UNL11      -0.0589
     14 C           0.4657   -2.2598   -3.8291 C.ar    1  UNL11      -0.0316
     15 C          -0.8832   -2.4551   -3.6429 C.ar    1  UNL11       0.1223
     16 N          -1.6108   -3.3915   -4.4465 N.4     1  UNL11       0.0060
     17 O          -2.7988   -3.1681   -4.6762 O.2     1  UNL11      -0.1300
     18 O          -1.0301   -4.5120   -4.9611 O.2     1  UNL11      -0.3961
     19 C          -1.4949   -1.7092   -2.6561 C.ar    1  UNL11      -0.0195
     20 C          -0.2277    2.7520   -0.0650 C.ar    1  UNL11      -0.0561
     21 C          -0.4016    4.1268   -0.0553 C.ar    1  UNL11      -0.0585
     22 H           1.3473    6.9733   -0.6696 H       1  UNL11       0.0278
     23 H           0.0760    6.7979    0.5664 H       1  UNL11       0.0278
     24 H          -0.3546    6.6804   -1.2164 H       1  UNL11       0.0278
     25 H           2.5828    5.0968   -1.2084 H       1  UNL11       0.0620
     26 H           2.8750    2.5900   -1.2192 H       1  UNL11       0.0621
     27 H           0.8094    0.2682   -1.4811 H       1  UNL11       0.0634
     28 H           2.2621    0.4923   -0.5056 H       1  UNL11       0.0634
     29 H          -1.3829    0.9019    1.0258 H       1  UNL11       0.1828
     30 H           1.1124    0.0875   -1.4837 H       1  UNL11       0.0625
     31 H           2.2754   -1.2434   -3.2605 H       1  UNL11       0.0618
     32 H           0.9569   -2.8340   -4.5959 H       1  UNL11       0.0640
     33 H          -2.5527   -1.8421   -2.4947 H       1  UNL11       0.0648
     34 H          -1.0232    2.0973    0.2618 H       1  UNL11       0.0621
     35 H          -1.3363    4.5654    0.2756 H       1  UNL11       0.0620
     36 H          -0.1260   -4.6910   -4.7919 H       1  UNL11       0.3292
@<TRIPOS>BOND
     1     1     2    1
     2     1    22    1
     3     1    23    1
     4     1    24    1
     5     2     3   ar
     6     3     4   ar
     7     3    25    1
     8     4     5   ar
     9     4    26    1
    10     5     6    1
    11     5    20   ar
    12     6     7    1
    13     6    27    1
    14     6    28    1
    15     7     8    1
    16     8     9   am
    17     8    29    1
    18     9    10    2
    19     9    11    1
    20    11    12   ar
    21    12    13   ar
    22    12    30    1
    23    13    14   ar
    24    13    31    1
    25    14    15   ar
    26    14    32    1
    27    15    16    1
    28    15    19   ar
    29    16    17    2
    30    16    18    1
    31    19    11   ar
    32    19    33    1
    33    20    21   ar
    34    20    34    1
    35    21     2   ar
    36    21    35    1
    37    18    36    1
@<TRIPOS>MOLECULE
*****
 36 37 0 0 0
SMALL
GASTEIGER

@<TRIPOS>ATOM
      1 C           0.2994    6.4272   -0.5243 C.3     1  UNL11      -0.0397
      2 C           0.5261    4.9650   -0.5237 C.ar    1  UNL11      -0.0504
      3 C           0.8154    4.2679   -1.6881 C.ar    1  UNL11      -0.0585
      4 C           1.0223    2.9075   -1.6499 C.ar    1  UNL11      -0.0561
      5 C           0.9549    2.1792   -0.4838 C.ar    1  UNL11      -0.0196
      6 C           1.1872    0.7095   -0.5135 C.3     1  UNL11       0.0983
      7 O           0.4528    0.1202    0.4853 O.3     1  UNL11      -0.2749
      8 N          -0.8545    0.3661    0.2769 N.am    1  UNL11      -0.1902
      9 C          -1.6698   -0.4990   -0.4843 C.2     1  UNL11       0.2668
     10 O          -1.1913   -1.5345   -0.9937 O.2     1  UNL11      -0.2681
     11 C          -3.0721   -0.1698   -0.6655 C.ar    1  UNL11       0.0408
     12 C          -3.8070    0.5488    0.2822 C.ar    1  UNL11      -0.0494
     13 C          -5.1229    0.8074    0.0429 C.ar    1  UNL11      -0.0589
     14 C          -5.7041    0.3539   -1.1297 C.ar    1  UNL11      -0.0316
     15 C          -5.0075   -0.3557   -2.0803 C.ar    1  UNL11       0.1223
     16 N          -5.6482   -0.8098   -3.2783 N.4     1  UNL11       0.0060
     17 O          -4.9841   -1.4520   -4.0911 O.2     1  UNL11      -0.1300
     18 O          -6.9611   -0.5548   -3.5411 O.2     1  UNL11      -0.3961
     19 C          -3.6756   -0.6089   -1.8232 C.ar    1  UNL11      -0.0195
     20 C           0.6665    2.8785    0.6694 C.ar    1  UNL11      -0.0561
     21 C           0.4553    4.2480    0.6508 C.ar    1  UNL11      -0.0585
     22 H           0.5310    6.8614   -1.5177 H       1  UNL11       0.0278
     23 H           0.9725    6.9469    0.2063 H       1  UNL11       0.0278
     24 H          -0.7648    6.5966   -0.2800 H       1  UNL11       0.0278
     25 H           0.8682    4.8541   -2.6109 H       1  UNL11       0.0620
     26 H           1.2465    2.3595   -2.5523 H       1  UNL11       0.0621
     27 H           0.8094    0.2682   -1.4811 H       1  UNL11       0.0634
     28 H           2.2621    0.4923   -0.5056 H       1  UNL11       0.0634
     29 H          -1.2680    1.2437    0.7082 H       1  UNL11       0.1828
     30 H          -3.2959    0.8781    1.1843 H       1  UNL11       0.0625
     31 H          -5.7179    1.3694    0.7676 H       1  UNL11       0.0618
     32 H          -6.7445    0.5586   -1.3157 H       1  UNL11       0.0640
     33 H          -3.1101   -1.1673   -2.5521 H       1  UNL11       0.0648
     34 H           0.6112    2.3287    1.5983 H       1  UNL11       0.0621
     35 H           0.2286    4.7867    1.5640 H       1  UNL11       0.0620
     36 H          -7.4752   -0.0666   -2.9285 H       1  UNL11       0.3292
@<TRIPOS>BOND
     1     1     2    1
     2     1    22    1
     3     1    23    1
     4     1    24    1
     5     2     3   ar
     6     3     4   ar
     7     3    25    1
     8     4     5   ar
     9     4    26    1
    10     5     6    1
    11     5    20   ar
    12     6     7    1
    13     6    27    1
    14     6    28    1
    15     7     8    1
    16     8     9   am
    17     8    29    1
    18     9    10    2
    19     9    11    1
    20    11    12   ar
    21    12    13   ar
    22    12    30    1
    23    13    14   ar
    24    13    31    1
    25    14    15   ar
    26    14    32    1
    27    15    16    1
    28    15    19   ar
    29    16    17    2
    30    16    18    1
    31    19    11   ar
    32    19    33    1
    33    20    21   ar
    34    20    34    1
    35    21     2   ar
    36    21    35    1
    37    18    36    1
@<TRIPOS>MOLECULE
*****
 36 37 0 0 0
SMALL
GASTEIGER

@<TRIPOS>ATOM
      1 C          -0.3737   -1.4938   -5.6311 C.3     1  UNL11      -0.0397
      2 C           0.0273   -0.9317   -4.3224 C.ar    1  UNL11      -0.0504
      3 C           1.3266   -1.0367   -3.8469 C.ar    1  UNL11      -0.0585
      4 C           1.6646   -0.5000   -2.6252 C.ar    1  UNL11      -0.0561
      5 C           0.7554    0.1543   -1.8251 C.ar    1  UNL11      -0.0196
      6 C           1.1872    0.7095   -0.5135 C.3     1  UNL11       0.0983
      7 O           0.4528    0.1202    0.4853 O.3     1  UNL11      -0.2749
      8 N          -0.8545    0.3661    0.2769 N.am    1  UNL11      -0.1902
      9 C          -1.6698   -0.4990   -0.4843 C.2     1  UNL11       0.2668
     10 O          -2.8763   -0.2327   -0.6685 O.2     1  UNL11      -0.2681
     11 C          -1.0865   -1.7015   -1.0514 C.ar    1  UNL11       0.0408
     12 C          -0.0166   -2.3751   -0.4545 C.ar    1  UNL11      -0.0494
     13 C           0.4821   -3.4909   -1.0560 C.ar    1  UNL11      -0.0589
     14 C          -0.0782   -3.9332   -2.2429 C.ar    1  UNL11      -0.0316
     15 C          -1.1304   -3.2918   -2.8544 C.ar    1  UNL11       0.1223
     16 N          -1.6781   -3.7809   -4.0844 N.4     1  UNL11       0.0060
     17 O          -2.1687   -2.9714   -4.8705 O.2     1  UNL11      -0.1300
     18 O          -1.6701   -5.1050   -4.4072 O.2     1  UNL11      -0.3961
     19 C          -1.6244   -2.1636   -2.2322 C.ar    1  UNL11      -0.0195
     20 C          -0.5340    0.2545   -2.3038 C.ar    1  UNL11      -0.0561
     21 C          -0.8931   -0.2792   -3.5313 C.ar    1  UNL11      -0.0585
     22 H           0.5113   -1.8555   -6.1923 H       1  UNL11       0.0278
     23 H          -0.8572   -0.7179   -6.2800 H       1  UNL11       0.0278
     24 H          -1.0612   -2.3357   -5.4322 H       1  UNL11       0.0278
     25 H           2.0437   -1.5575   -4.4892 H       1  UNL11       0.0620
     26 H           2.6732   -0.5794   -2.2494 H       1  UNL11       0.0621
     27 H           2.2647    0.4450   -0.3067 H       1  UNL11       0.0634
     28 H           1.1657    1.8057   -0.5368 H       1  UNL11       0.0634
     29 H          -1.2680    1.2437    0.7082 H       1  UNL11       0.1828
     30 H           0.3817   -1.9795    0.4774 H       1  UNL11       0.0625
     31 H           1.3167   -4.0362   -0.6074 H       1  UNL11       0.0618
     32 H           0.3187   -4.8146   -2.7168 H       1  UNL11       0.0640
     33 H          -2.4465   -1.6414   -2.6953 H       1  UNL11       0.0648
     34 H          -1.2653    0.7667   -1.6946 H       1  UNL11       0.0621
     35 H          -1.9104   -0.1947   -3.8967 H       1  UNL11       0.0620
     36 H          -1.2988   -5.7293   -3.8152 H       1  UNL11       0.3292
@<TRIPOS>BOND
     1     1     2    1
     2     1    22    1
     3     1    23    1
     4     1    24    1
     5     2     3   ar
     6     3     4   ar
     7     3    25    1
     8     4     5   ar
     9     4    26    1
    10     5     6    1
    11     5    20   ar
    12     6     7    1
    13     6    27    1
    14     6    28    1
    15     7     8    1
    16     8     9   am
    17     8    29    1
    18     9    10    2
    19     9    11    1
    20    11    12   ar
    21    12    13   ar
    22    12    30    1
    23    13    14   ar
    24    13    31    1
    25    14    15   ar
    26    14    32    1
    27    15    16    1
    28    15    19   ar
    29    16    17    2
    30    16    18    1
    31    19    11   ar
    32    19    33    1
    33    20    21   ar
    34    20    34    1
    35    21     2   ar
    36    21    35    1
    37    18    36    1
@<TRIPOS>MOLECULE
*****
 36 37 0 0 0
SMALL
GASTEIGER

@<TRIPOS>ATOM
      1 C           0.3592    6.4362   -0.4999 C.3     1  UNL11      -0.0397
      2 C           0.5717    4.9718   -0.5055 C.ar    1  UNL11      -0.0504
      3 C           1.4005    4.3552   -1.4319 C.ar    1  UNL11      -0.0585
      4 C           1.5763    2.9902   -1.4063 C.ar    1  UNL11      -0.0561
      5 C           0.9549    2.1792   -0.4838 C.ar    1  UNL11      -0.0196
      6 C           1.1872    0.7095   -0.5135 C.3     1  UNL11       0.0983
      7 O           0.4528    0.1202    0.4853 O.3     1  UNL11      -0.2749
      8 N          -0.8545    0.3661    0.2769 N.am    1  UNL11      -0.1902
      9 C          -1.3106    1.1223   -0.8242 C.2     1  UNL11       0.2668
     10 O          -2.5305    1.3423   -0.9793 O.2     1  UNL11      -0.2681
     11 C          -0.3425    1.6424   -1.7730 C.ar    1  UNL11       0.0408
     12 C           1.0326    1.4256   -1.6433 C.ar    1  UNL11      -0.0494
     13 C           1.8773    1.9577   -2.5700 C.ar    1  UNL11      -0.0589
     14 C           1.3588    2.7007   -3.6176 C.ar    1  UNL11      -0.0316
     15 C           0.0115    2.9317   -3.7716 C.ar    1  UNL11       0.1223
     16 N          -0.4830    3.7095   -4.8682 N.4     1  UNL11       0.0060
     17 O           0.2362    4.5943   -5.3307 O.2     1  UNL11      -0.1300
     18 O          -1.7155    3.4987   -5.4105 O.2     1  UNL11      -0.3961
     19 C          -0.8309    2.3855   -2.8249 C.ar    1  UNL11      -0.0195
     20 C           0.1323    2.7989    0.4335 C.ar    1  UNL11      -0.0561
     21 C          -0.0569    4.1716    0.4236 C.ar    1  UNL11      -0.0585
     22 H           1.0424    6.9362   -1.2156 H       1  UNL11       0.0278
     23 H           0.5838    6.8794    0.5051 H       1  UNL11       0.0278
     24 H          -0.6903    6.6188   -0.7935 H       1  UNL11       0.0278
     25 H           1.8917    5.0068   -2.1614 H       1  UNL11       0.0620
     26 H           2.2187    2.5046   -2.1249 H       1  UNL11       0.0621
     27 H           0.8094    0.2682   -1.4811 H       1  UNL11       0.0634
     28 H           2.2621    0.4923   -0.5056 H       1  UNL11       0.0634
     29 H          -1.5501   -0.0311    0.9737 H       1  UNL11       0.1828
     30 H           1.3804    0.8342   -0.7990 H       1  UNL11       0.0625
     31 H           2.9563    1.8001   -2.4916 H       1  UNL11       0.0618
     32 H           2.0288    3.1211   -4.3479 H       1  UNL11       0.0640
     33 H          -1.8911    2.5568   -2.9225 H       1  UNL11       0.0648
     34 H          -0.3643    2.1831    1.1700 H       1  UNL11       0.0621
     35 H          -0.7066    4.6472    1.1497 H       1  UNL11       0.0620
     36 H          -2.2707    2.8274   -5.0653 H       1  UNL11       0.3292
@<TRIPOS>BOND
     1     1     2    1
     2     1    22    1
     3     1    23    1
     4     1    24    1
     5     2     3   ar
     6     3     4   ar
     7     3    25    1
     8     4     5   ar
     9     4    26    1
    10     5     6    1
    11     5    20   ar
    12     6     7    1
    13     6    27    1
    14     6    28    1
    15     7     8    1
    16     8     9   am
    17     8    29    1
    18     9    10    2
    19     9    11    1
    20    11    12   ar
    21    12    13   ar
    22    12    30    1
    23    13    14   ar
    24    13    31    1
    25    14    15   ar
    26    14    32    1
    27    15    16    1
    28    15    19   ar
    29    16    17    2
    30    16    18    1
    31    19    11   ar
    32    19    33    1
    33    20    21   ar
    34    20    34    1
    35    21     2   ar
    36    21    35    1
    37    18    36    1
@<TRIPOS>MOLECULE
*****
 36 37 0 0 0
SMALL
GASTEIGER

@<TRIPOS>ATOM
      1 C          -0.5247   -1.5572   -5.5545 C.3     1  UNL11      -0.0397
      2 C          -0.0881   -0.9791   -4.2643 C.ar    1  UNL11      -0.0504
      3 C          -0.1451   -1.7016   -3.0810 C.ar    1  UNL11      -0.0585
      4 C           0.2715   -1.1322   -1.8990 C.ar    1  UNL11      -0.0561
      5 C           0.7554    0.1543   -1.8251 C.ar    1  UNL11      -0.0196
      6 C           1.1872    0.7095   -0.5135 C.3     1  UNL11       0.0983
      7 O           0.4528    0.1202    0.4853 O.3     1  UNL11      -0.2749
      8 N          -0.8545    0.3661    0.2769 N.am    1  UNL11      -0.1902
      9 C          -1.5016    1.4980    0.8176 C.2     1  UNL11       0.2668
     10 O          -2.7197    1.6879    0.6149 O.2     1  UNL11      -0.2681
     11 C          -0.7328    2.4376    1.6139 C.ar    1  UNL11       0.0408
     12 C           0.3770    2.0527    2.3721 C.ar    1  UNL11      -0.0494
     13 C           1.0386    2.9931    3.1024 C.ar    1  UNL11      -0.0589
     14 C           0.5995    4.3066    3.0798 C.ar    1  UNL11      -0.0316
     15 C          -0.4889    4.7154    2.3445 C.ar    1  UNL11       0.1223
     16 N          -0.9123    6.0839    2.3520 N.4     1  UNL11       0.0060
     17 O          -0.2791    6.8897    3.0331 O.2     1  UNL11      -0.1300
     18 O          -1.9856    6.5159    1.6317 O.2     1  UNL11      -0.3961
     19 C          -1.1479    3.7509    1.6098 C.ar    1  UNL11      -0.0195
     20 C           0.8087    0.8665   -3.0049 C.ar    1  UNL11      -0.0561
     21 C           0.3941    0.3103   -4.2046 C.ar    1  UNL11      -0.0585
     22 H          -0.7483   -2.6377   -5.4466 H       1  UNL11       0.0278
     23 H           0.2807   -1.4828   -6.3308 H       1  UNL11       0.0278
     24 H          -1.4353   -1.0154   -5.8679 H       1  UNL11       0.0278
     25 H          -0.5300   -2.7240   -3.1482 H       1  UNL11       0.0620
     26 H           0.2286   -1.6886   -0.9751 H       1  UNL11       0.0621
     27 H           2.2647    0.4450   -0.3067 H       1  UNL11       0.0634
     28 H           1.1657    1.8057   -0.5368 H       1  UNL11       0.0634
     29 H          -1.3996   -0.3247   -0.3171 H       1  UNL11       0.1828
     30 H           0.6740    1.0063    2.3505 H       1  UNL11       0.0625
     31 H           1.9106    2.7173    3.7013 H       1  UNL11       0.0618
     32 H           1.1235    5.0475    3.6589 H       1  UNL11       0.0640
     33 H          -2.0067    4.0470    1.0288 H       1  UNL11       0.0648
     34 H           1.1880    1.8781   -2.9727 H       1  UNL11       0.0621
     35 H           0.4402    0.8805   -5.1256 H       1  UNL11       0.0620
     36 H          -2.4743    5.9100    1.1100 H       1  UNL11       0.3292
@<TRIPOS>BOND
     1     1     2    1
     2     1    22    1
     3     1    23    1
     4     1    24    1
     5     2     3   ar
     6     3     4   ar
     7     3    25    1
     8     4     5   ar
     9     4    26    1
    10     5     6    1
    11     5    20   ar
    12     6     7    1
    13     6    27    1
    14     6    28    1
    15     7     8    1
    16     8     9   am
    17     8    29    1
    18     9    10    2
    19     9    11    1
    20    11    12   ar
    21    12    13   ar
    22    12    30    1
    23    13    14   ar
    24    13    31    1
    25    14    15   ar
    26    14    32    1
    27    15    16    1
    28    15    19   ar
    29    16    17    2
    30    16    18    1
    31    19    11   ar
    32    19    33    1
    33    20    21   ar
    34    20    34    1
    35    21     2   ar
    36    21    35    1
    37    18    36    1
@<TRIPOS>MOLECULE
*****
 36 37 0 0 0
SMALL
GASTEIGER

@<TRIPOS>ATOM
      1 C          -0.3737   -1.4938   -5.6311 C.3     1  UNL11      -0.0397
      2 C           0.0273   -0.9317   -4.3224 C.ar    1  UNL11      -0.0504
      3 C           1.3266   -1.0367   -3.8469 C.ar    1  UNL11      -0.0585
      4 C           1.6646   -0.5000   -2.6252 C.ar    1  UNL11      -0.0561
      5 C           0.7554    0.1543   -1.8251 C.ar    1  UNL11      -0.0196
      6 C           1.1872    0.7095   -0.5135 C.3     1  UNL11       0.0983
      7 O           0.4528    0.1202    0.4853 O.3     1  UNL11      -0.2749
      8 N          -0.8545    0.3661    0.2769 N.am    1  UNL11      -0.1902
      9 C          -1.3048    1.5352   -0.3733 C.2     1  UNL11       0.2668
     10 O          -2.5266    1.7373   -0.5380 O.2     1  UNL11      -0.2681
     11 C          -0.3288    2.5003   -0.8465 C.ar    1  UNL11       0.0408
     12 C          -0.5971    3.8704   -0.9203 C.ar    1  UNL11      -0.0494
     13 C           0.3685    4.7103   -1.3870 C.ar    1  UNL11      -0.0589
     14 C           1.5917    4.1915   -1.7784 C.ar    1  UNL11      -0.0316
     15 C           1.8849    2.8488   -1.7181 C.ar    1  UNL11       0.1223
     16 N           3.1620    2.3532   -2.1368 N.4     1  UNL11       0.0060
     17 O           3.2253    1.2168   -2.6044 O.2     1  UNL11      -0.1300
     18 O           4.2990    3.0979   -2.0347 O.2     1  UNL11      -0.3961
     19 C           0.8965    2.0115   -1.2426 C.ar    1  UNL11      -0.0195
     20 C          -0.5340    0.2545   -2.3038 C.ar    1  UNL11      -0.0561
     21 C          -0.8931   -0.2792   -3.5313 C.ar    1  UNL11      -0.0585
     22 H           0.5113   -1.8555   -6.1923 H       1  UNL11       0.0278
     23 H          -0.8572   -0.7179   -6.2800 H       1  UNL11       0.0278
     24 H          -1.0612   -2.3357   -5.4322 H       1  UNL11       0.0278
     25 H           2.0437   -1.5575   -4.4892 H       1  UNL11       0.0620
     26 H           2.6732   -0.5794   -2.2494 H       1  UNL11       0.0621
     27 H           2.2647    0.4450   -0.3067 H       1  UNL11       0.0634
     28 H           1.1657    1.8057   -0.5368 H       1  UNL11       0.0634
     29 H          -1.5545   -0.3551    0.6189 H       1  UNL11       0.1828
     30 H          -1.5765    4.2185   -0.5990 H       1  UNL11       0.0625
     31 H           0.1835    5.7858   -1.4519 H       1  UNL11       0.0618
     32 H           2.3526    4.8574   -2.1481 H       1  UNL11       0.0640
     33 H           1.1019    0.9542   -1.1902 H       1  UNL11       0.0648
     34 H          -1.2653    0.7667   -1.6946 H       1  UNL11       0.0621
     35 H          -1.9104   -0.1947   -3.8967 H       1  UNL11       0.0620
     36 H           4.2612    3.9643   -1.6800 H       1  UNL11       0.3292
@<TRIPOS>BOND
     1     1     2    1
     2     1    22    1
     3     1    23    1
     4     1    24    1
     5     2     3   ar
     6     3     4   ar
     7     3    25    1
     8     4     5   ar
     9     4    26    1
    10     5     6    1
    11     5    20   ar
    12     6     7    1
    13     6    27    1
    14     6    28    1
    15     7     8    1
    16     8     9   am
    17     8    29    1
    18     9    10    2
    19     9    11    1
    20    11    12   ar
    21    12    13   ar
    22    12    30    1
    23    13    14   ar
    24    13    31    1
    25    14    15   ar
    26    14    32    1
    27    15    16    1
    28    15    19   ar
    29    16    17    2
    30    16    18    1
    31    19    11   ar
    32    19    33    1
    33    20    21   ar
    34    20    34    1
    35    21     2   ar
    36    21    35    1
    37    18    36    1
@<TRIPOS>MOLECULE
*****
 36 37 0 0 0
SMALL
GASTEIGER

@<TRIPOS>ATOM
      1 C           0.3340    6.4278   -0.2808 C.3     1  UNL11      -0.0397
      2 C           0.5536    4.9656   -0.3386 C.ar    1  UNL11      -0.0504
      3 C           1.0981    4.2637    0.7274 C.ar    1  UNL11      -0.0585
      4 C           1.2866    2.9030    0.6392 C.ar    1  UNL11      -0.0561
      5 C           0.9549    2.1792   -0.4838 C.ar    1  UNL11      -0.0196
      6 C           1.1872    0.7095   -0.5135 C.3     1  UNL11       0.0983
      7 O           0.4528    0.1202    0.4853 O.3     1  UNL11      -0.2749
      8 N          -0.8545    0.3661    0.2769 N.am    1  UNL11      -0.1902
      9 C          -1.5016    1.4980    0.8176 C.2     1  UNL11       0.2668
     10 O          -0.8671    2.3165    1.5162 O.2     1  UNL11      -0.2681
     11 C          -2.9143    1.6989    0.5493 C.ar    1  UNL11       0.0408
     12 C          -3.5315    1.2480   -0.6214 C.ar    1  UNL11      -0.0494
     13 C          -4.8602    1.4865   -0.8038 C.ar    1  UNL11      -0.0589
     14 C          -5.5699    2.1692    0.1702 C.ar    1  UNL11      -0.0316
     15 C          -4.9906    2.6254    1.3316 C.ar    1  UNL11       0.1223
     16 N          -5.7605    3.3310    2.3121 N.4     1  UNL11       0.0060
     17 O          -5.1953    4.1779    3.0030 O.2     1  UNL11      -0.1300
     18 O          -7.0897    3.0948    2.4993 O.2     1  UNL11      -0.3961
     19 C          -3.6443    2.3754    1.5015 C.ar    1  UNL11      -0.0195
     20 C           0.4147    2.8834   -1.5393 C.ar    1  UNL11      -0.0561
     21 C           0.2172    4.2533   -1.4691 C.ar    1  UNL11      -0.0585
     22 H           0.5259    6.8149    0.7402 H       1  UNL11       0.0278
     23 H          -0.7291    6.6925   -0.5186 H       1  UNL11       0.0278
     24 H           1.0338    6.8954   -0.9967 H       1  UNL11       0.0278
     25 H           1.3584    4.8461    1.6168 H       1  UNL11       0.0620
     26 H           1.7107    2.3516    1.4644 H       1  UNL11       0.0621
     27 H           0.8094    0.2682   -1.4811 H       1  UNL11       0.0634
     28 H           2.2621    0.4923   -0.5056 H       1  UNL11       0.0634
     29 H          -1.3996   -0.3247   -0.3171 H       1  UNL11       0.1828
     30 H          -2.9219    0.7182   -1.3503 H       1  UNL11       0.0625
     31 H          -5.3658    1.1419   -1.7097 H       1  UNL11       0.0618
     32 H          -6.6196    2.3574    0.0229 H       1  UNL11       0.0640
     33 H          -3.1673    2.7273    2.4023 H       1  UNL11       0.0648
     34 H           0.1433    2.3362   -2.4311 H       1  UNL11       0.0621
     35 H          -0.2078    4.7960   -2.3059 H       1  UNL11       0.0620
     36 H          -7.5292    2.4519    1.9782 H       1  UNL11       0.3292
@<TRIPOS>BOND
     1     1     2    1
     2     1    22    1
     3     1    23    1
     4     1    24    1
     5     2     3   ar
     6     3     4   ar
     7     3    25    1
     8     4     5   ar
     9     4    26    1
    10     5     6    1
    11     5    20   ar
    12     6     7    1
    13     6    27    1
    14     6    28    1
    15     7     8    1
    16     8     9   am
    17     8    29    1
    18     9    10    2
    19     9    11    1
    20    11    12   ar
    21    12    13   ar
    22    12    30    1
    23    13    14   ar
    24    13    31    1
    25    14    15   ar
    26    14    32    1
    27    15    16    1
    28    15    19   ar
    29    16    17    2
    30    16    18    1
    31    19    11   ar
    32    19    33    1
    33    20    21   ar
    34    20    34    1
    35    21     2   ar
    36    21    35    1
    37    18    36    1
@<TRIPOS>MOLECULE
*****
 36 37 0 0 0
SMALL
GASTEIGER

@<TRIPOS>ATOM
      1 C           6.7716   -0.5420    0.3405 C.3     1  UNL11      -0.0397
      2 C           5.3432   -0.2240    0.1212 C.ar    1  UNL11      -0.0504
      3 C           4.3944   -1.2160   -0.0819 C.ar    1  UNL11      -0.0585
      4 C           3.0736   -0.8834   -0.2809 C.ar    1  UNL11      -0.0561
      5 C           2.6298    0.4196   -0.2904 C.ar    1  UNL11      -0.0196
      6 C           1.1872    0.7095   -0.5135 C.3     1  UNL11       0.0983
      7 O           0.4528    0.1202    0.4853 O.3     1  UNL11      -0.2749
      8 N          -0.8545    0.3661    0.2769 N.am    1  UNL11      -0.1902
      9 C          -1.6698   -0.4990   -0.4843 C.2     1  UNL11       0.2668
     10 O          -2.8763   -0.2327   -0.6685 O.2     1  UNL11      -0.2681
     11 C          -1.0865   -1.7015   -1.0514 C.ar    1  UNL11       0.0408
     12 C          -1.5408   -2.2696   -2.2454 C.ar    1  UNL11      -0.0494
     13 C          -0.9480   -3.4064   -2.7057 C.ar    1  UNL11      -0.0589
     14 C           0.0883   -3.9748   -1.9836 C.ar    1  UNL11      -0.0316
     15 C           0.5566   -3.4398   -0.8059 C.ar    1  UNL11       0.1223
     16 N           1.6288   -4.0619   -0.0880 N.4     1  UNL11       0.0060
     17 O           2.0020   -3.5508    0.9673 O.2     1  UNL11      -0.1300
     18 O           2.2410   -5.1946   -0.5350 O.2     1  UNL11      -0.3961
     19 C          -0.0539   -2.2880   -0.3535 C.ar    1  UNL11      -0.0195
     20 C           3.5783    1.4001   -0.0884 C.ar    1  UNL11      -0.0561
     21 C           4.9125    1.0849    0.1139 C.ar    1  UNL11      -0.0585
     22 H           6.9188   -1.6347    0.4554 H       1  UNL11       0.0278
     23 H           7.1552   -0.0759    1.2852 H       1  UNL11       0.0278
     24 H           7.3298   -0.1792   -0.5414 H       1  UNL11       0.0278
     25 H           4.7550   -2.2494   -0.0720 H       1  UNL11       0.0620
     26 H           2.3312   -1.6504   -0.4406 H       1  UNL11       0.0621
     27 H           0.9890    1.8178   -0.4348 H       1  UNL11       0.0634
     28 H           0.8979    0.4437   -1.5373 H       1  UNL11       0.0634
     29 H          -1.2680    1.2437    0.7082 H       1  UNL11       0.1828
     30 H          -2.3587   -1.7780   -2.7678 H       1  UNL11       0.0625
     31 H          -1.2839   -3.8682   -3.6379 H       1  UNL11       0.0618
     32 H           0.5542   -4.8739   -2.3490 H       1  UNL11       0.0640
     33 H           0.2934   -1.8526    0.5699 H       1  UNL11       0.0648
     34 H           3.2533    2.4310   -0.0884 H       1  UNL11       0.0621
     35 H           5.6491    1.8648    0.2711 H       1  UNL11       0.0620
     36 H           1.9641   -5.5913   -1.3374 H       1  UNL11       0.3292
@<TRIPOS>BOND
     1     1     2    1
     2     1    22    1
     3     1    23    1
     4     1    24    1
     5     2     3   ar
     6     3     4   ar
     7     3    25    1
     8     4     5   ar
     9     4    26    1
    10     5     6    1
    11     5    20   ar
    12     6     7    1
    13     6    27    1
    14     6    28    1
    15     7     8    1
    16     8     9   am
    17     8    29    1
    18     9    10    2
    19     9    11    1
    20    11    12   ar
    21    12    13   ar
    22    12    30    1
    23    13    14   ar
    24    13    31    1
    25    14    15   ar
    26    14    32    1
    27    15    16    1
    28    15    19   ar
    29    16    17    2
    30    16    18    1
    31    19    11   ar
    32    19    33    1
    33    20    21   ar
    34    20    34    1
    35    21     2   ar
    36    21    35    1
    37    18    36    1
@<TRIPOS>MOLECULE
*****
 36 37 0 0 0
SMALL
GASTEIGER

@<TRIPOS>ATOM
      1 C          -0.4030   -1.3777   -5.6706 C.3     1  UNL11      -0.0397
      2 C           0.0056   -0.8432   -4.3527 C.ar    1  UNL11      -0.0504
      3 C           1.0086    0.1072   -4.2264 C.ar    1  UNL11      -0.0585
      4 C           1.3616    0.5836   -2.9841 C.ar    1  UNL11      -0.0561
      5 C           0.7554    0.1543   -1.8251 C.ar    1  UNL11      -0.0196
      6 C           1.1872    0.7095   -0.5135 C.3     1  UNL11       0.0983
      7 O           0.4528    0.1202    0.4853 O.3     1  UNL11      -0.2749
      8 N          -0.8545    0.3661    0.2769 N.am    1  UNL11      -0.1902
      9 C          -1.7935   -0.6709    0.0893 C.2     1  UNL11       0.2668
     10 O          -2.9971   -0.4057   -0.1150 O.2     1  UNL11      -0.2681
     11 C          -1.3412   -2.0498    0.1354 C.ar    1  UNL11       0.0408
     12 C          -1.9537   -3.0697   -0.5990 C.ar    1  UNL11      -0.0494
     13 C          -1.4766   -4.3411   -0.4922 C.ar    1  UNL11      -0.0589
     14 C          -0.3990   -4.5969    0.3395 C.ar    1  UNL11      -0.0316
     15 C           0.2239   -3.6150    1.0747 C.ar    1  UNL11       0.1223
     16 N           1.3338   -3.9232    1.9262 N.4     1  UNL11       0.0060
     17 O           1.7201   -5.0899    1.9866 O.2     1  UNL11      -0.1300
     18 O           1.9699   -2.9698    2.6637 O.2     1  UNL11      -0.3961
     19 C          -0.2709   -2.3324    0.9550 C.ar    1  UNL11      -0.0195
     20 C          -0.2401   -0.7907   -1.9582 C.ar    1  UNL11      -0.0561
     21 C          -0.6094   -1.2819   -3.2003 C.ar    1  UNL11      -0.0585
     22 H           0.0900   -0.8199   -6.4920 H       1  UNL11       0.0278
     23 H          -1.5059   -1.2631   -5.8356 H       1  UNL11       0.0278
     24 H          -0.1004   -2.4399   -5.7044 H       1  UNL11       0.0278
     25 H           1.4850    0.4441   -5.1524 H       1  UNL11       0.0620
     26 H           2.1417    1.3221   -2.8792 H       1  UNL11       0.0621
     27 H           2.2647    0.4450   -0.3067 H       1  UNL11       0.0634
     28 H           1.1657    1.8057   -0.5368 H       1  UNL11       0.0634
     29 H          -1.1706    1.3794    0.2576 H       1  UNL11       0.1828
     30 H          -2.7967   -2.8076   -1.2348 H       1  UNL11       0.0625
     31 H          -1.9372   -5.1552   -1.0581 H       1  UNL11       0.0618
     32 H          -0.0248   -5.6028    0.4230 H       1  UNL11       0.0640
     33 H           0.1986   -1.5467    1.5251 H       1  UNL11       0.0648
     34 H          -0.7331   -1.1410   -1.0624 H       1  UNL11       0.0621
     35 H          -1.3933   -2.0253   -3.2921 H       1  UNL11       0.0620
     36 H           1.6832   -2.0786    2.6246 H       1  UNL11       0.3292
@<TRIPOS>BOND
     1     1     2    1
     2     1    22    1
     3     1    23    1
     4     1    24    1
     5     2     3   ar
     6     3     4   ar
     7     3    25    1
     8     4     5   ar
     9     4    26    1
    10     5     6    1
    11     5    20   ar
    12     6     7    1
    13     6    27    1
    14     6    28    1
    15     7     8    1
    16     8     9   am
    17     8    29    1
    18     9    10    2
    19     9    11    1
    20    11    12   ar
    21    12    13   ar
    22    12    30    1
    23    13    14   ar
    24    13    31    1
    25    14    15   ar
    26    14    32    1
    27    15    16    1
    28    15    19   ar
    29    16    17    2
    30    16    18    1
    31    19    11   ar
    32    19    33    1
    33    20    21   ar
    34    20    34    1
    35    21     2   ar
    36    21    35    1
    37    18    36    1
@<TRIPOS>MOLECULE
*****
 36 37 0 0 0
SMALL
GASTEIGER

@<TRIPOS>ATOM
      1 C           6.8044   -0.3128    0.4260 C.3     1  UNL11      -0.0397
      2 C           5.3679   -0.0500    0.1875 C.ar    1  UNL11      -0.0504
      3 C           4.7314    1.0681    0.7072 C.ar    1  UNL11      -0.0585
      4 C           3.3936    1.2818    0.4634 C.ar    1  UNL11      -0.0561
      5 C           2.6298    0.4196   -0.2904 C.ar    1  UNL11      -0.0196
      6 C           1.1872    0.7095   -0.5135 C.3     1  UNL11       0.0983
      7 O           0.4528    0.1202    0.4853 O.3     1  UNL11      -0.2749
      8 N          -0.8545    0.3661    0.2769 N.am    1  UNL11      -0.1902
      9 C          -1.5235   -0.0646   -0.8890 C.2     1  UNL11       0.2668
     10 O          -2.7346    0.1928   -1.0555 O.2     1  UNL11      -0.2681
     11 C          -0.7846   -0.8094   -1.8926 C.ar    1  UNL11       0.0408
     12 C           0.5857   -0.6327   -2.1062 C.ar    1  UNL11      -0.0494
     13 C           1.2044   -1.3621   -3.0762 C.ar    1  UNL11      -0.0589
     14 C           0.4657   -2.2598   -3.8291 C.ar    1  UNL11      -0.0316
     15 C          -0.8832   -2.4551   -3.6429 C.ar    1  UNL11       0.1223
     16 N          -1.6108   -3.3915   -4.4465 N.4     1  UNL11       0.0060
     17 O          -2.8185   -3.5195   -4.2489 O.2     1  UNL11      -0.1300
     18 O          -1.0098   -4.1370   -5.4163 O.2     1  UNL11      -0.3961
     19 C          -1.4949   -1.7092   -2.6561 C.ar    1  UNL11      -0.0195
     20 C           3.2689   -0.6896   -0.8033 C.ar    1  UNL11      -0.0561
     21 C           4.6149   -0.9215   -0.5688 C.ar    1  UNL11      -0.0585
     22 H           7.2847    0.5505    0.9289 H       1  UNL11       0.0278
     23 H           7.3598   -0.4598   -0.5367 H       1  UNL11       0.0278
     24 H           6.8739   -1.2080    1.0700 H       1  UNL11       0.0278
     25 H           5.3456    1.7492    1.3046 H       1  UNL11       0.0620
     26 H           2.8926    2.1490    0.8658 H       1  UNL11       0.0621
     27 H           0.9890    1.8178   -0.4348 H       1  UNL11       0.0634
     28 H           0.8979    0.4437   -1.5373 H       1  UNL11       0.0634
     29 H          -1.3829    0.9019    1.0258 H       1  UNL11       0.1828
     30 H           1.1124    0.0875   -1.4837 H       1  UNL11       0.0625
     31 H           2.2754   -1.2434   -3.2605 H       1  UNL11       0.0618
     32 H           0.9569   -2.8340   -4.5959 H       1  UNL11       0.0640
     33 H          -2.5527   -1.8421   -2.4947 H       1  UNL11       0.0648
     34 H           2.6905   -1.3798   -1.4011 H       1  UNL11       0.0621
     35 H           5.1061   -1.7977   -0.9770 H       1  UNL11       0.0620
     36 H          -0.0907   -4.0468   -5.5745 H       1  UNL11       0.3292
@<TRIPOS>BOND
     1     1     2    1
     2     1    22    1
     3     1    23    1
     4     1    24    1
     5     2     3   ar
     6     3     4   ar
     7     3    25    1
     8     4     5   ar
     9     4    26    1
    10     5     6    1
    11     5    20   ar
    12     6     7    1
    13     6    27    1
    14     6    28    1
    15     7     8    1
    16     8     9   am
    17     8    29    1
    18     9    10    2
    19     9    11    1
    20    11    12   ar
    21    12    13   ar
    22    12    30    1
    23    13    14   ar
    24    13    31    1
    25    14    15   ar
    26    14    32    1
    27    15    16    1
    28    15    19   ar
    29    16    17    2
    30    16    18    1
    31    19    11   ar
    32    19    33    1
    33    20    21   ar
    34    20    34    1
    35    21     2   ar
    36    21    35    1
    37    18    36    1
@<TRIPOS>MOLECULE
*****
 36 37 0 0 0
SMALL
GASTEIGER

@<TRIPOS>ATOM
      1 C           0.3846    6.4366   -0.3209 C.3     1  UNL11      -0.0397
      2 C           0.5919    4.9723   -0.3694 C.ar    1  UNL11      -0.0504
      3 C           1.6083    4.3521    0.3433 C.ar    1  UNL11      -0.0585
      4 C           1.7706    2.9869    0.2760 C.ar    1  UNL11      -0.0561
      5 C           0.9549    2.1792   -0.4838 C.ar    1  UNL11      -0.0196
      6 C           1.1872    0.7095   -0.5135 C.3     1  UNL11       0.0983
      7 O           0.4528    0.1202    0.4853 O.3     1  UNL11      -0.2749
      8 N          -0.8545    0.3661    0.2769 N.am    1  UNL11      -0.1902
      9 C          -1.3106    1.1223   -0.8242 C.2     1  UNL11       0.2668
     10 O          -2.5305    1.3423   -0.9793 O.2     1  UNL11      -0.2681
     11 C          -0.3425    1.6424   -1.7730 C.ar    1  UNL11       0.0408
     12 C          -0.7102    2.4118   -2.8810 C.ar    1  UNL11      -0.0494
     13 C           0.2579    2.8529   -3.7317 C.ar    1  UNL11      -0.0589
     14 C           1.5818    2.5306   -3.4834 C.ar    1  UNL11      -0.0316
     15 C           1.9743    1.7752   -2.4027 C.ar    1  UNL11       0.1223
     16 N           3.3549    1.4613   -2.1845 N.4     1  UNL11       0.0060
     17 O           4.2065    2.2567   -2.5796 O.2     1  UNL11      -0.1300
     18 O           3.7490    0.3179   -1.5561 O.2     1  UNL11      -0.3961
     19 C           0.9819    1.3366   -1.5501 C.ar    1  UNL11      -0.0195
     20 C          -0.0527    2.8025   -1.1897 C.ar    1  UNL11      -0.0561
     21 C          -0.2319    4.1755   -1.1343 C.ar    1  UNL11      -0.0585
     22 H           1.0387    6.9020    0.4437 H       1  UNL11       0.0278
     23 H          -0.6667    6.6925   -0.0276 H       1  UNL11       0.0278
     24 H           0.6315    6.8384   -1.3202 H       1  UNL11       0.0278
     25 H           2.2519    5.0009    0.9456 H       1  UNL11       0.0620
     26 H           2.5599    2.4988    0.8271 H       1  UNL11       0.0621
     27 H           0.8094    0.2682   -1.4811 H       1  UNL11       0.0634
     28 H           2.2621    0.4923   -0.5056 H       1  UNL11       0.0634
     29 H          -1.5501   -0.0311    0.9737 H       1  UNL11       0.1828
     30 H          -1.7659    2.6320   -3.0239 H       1  UNL11       0.0625
     31 H          -0.0043    3.4581   -4.6036 H       1  UNL11       0.0618
     32 H           2.3447    2.8794   -4.1581 H       1  UNL11       0.0640
     33 H           1.2652    0.7392   -0.6982 H       1  UNL11       0.0648
     34 H          -0.7082    2.1887   -1.7912 H       1  UNL11       0.0621
     35 H          -1.0273    4.6541   -1.6944 H       1  UNL11       0.0620
     36 H           3.1082   -0.2941   -1.2516 H       1  UNL11       0.3292
@<TRIPOS>BOND
     1     1     2    1
     2     1    22    1
     3     1    23    1
     4     1    24    1
     5     2     3   ar
     6     3     4   ar
     7     3    25    1
     8     4     5   ar
     9     4    26    1
    10     5     6    1
    11     5    20   ar
    12     6     7    1
    13     6    27    1
    14     6    28    1
    15     7     8    1
    16     8     9   am
    17     8    29    1
    18     9    10    2
    19     9    11    1
    20    11    12   ar
    21    12    13   ar
    22    12    30    1
    23    13    14   ar
    24    13    31    1
    25    14    15   ar
    26    14    32    1
    27    15    16    1
    28    15    19   ar
    29    16    17    2
    30    16    18    1
    31    19    11   ar
    32    19    33    1
    33    20    21   ar
    34    20    34    1
    35    21     2   ar
    36    21    35    1
    37    18    36    1
@<TRIPOS>MOLECULE
*****
 36 37 0 0 0
SMALL
GASTEIGER

@<TRIPOS>ATOM
      1 C          -0.5783   -1.5202   -5.5526 C.3     1  UNL11      -0.0397
      2 C          -0.1287   -0.9507   -4.2630 C.ar    1  UNL11      -0.0504
      3 C          -0.6828   -1.3469   -3.0541 C.ar    1  UNL11      -0.0585
      4 C          -0.2384   -0.7969   -1.8730 C.ar    1  UNL11      -0.0561
      5 C           0.7554    0.1543   -1.8251 C.ar    1  UNL11      -0.0196
      6 C           1.1872    0.7095   -0.5135 C.3     1  UNL11       0.0983
      7 O           0.4528    0.1202    0.4853 O.3     1  UNL11      -0.2749
      8 N          -0.8545    0.3661    0.2769 N.am    1  UNL11      -0.1902
      9 C          -1.3721    1.6779    0.2174 C.2     1  UNL11       0.2668
     10 O          -2.5933    1.8690    0.0357 O.2     1  UNL11      -0.2681
     11 C          -0.4663    2.8020    0.3720 C.ar    1  UNL11       0.0408
     12 C          -0.9004    4.1306    0.3401 C.ar    1  UNL11      -0.0494
     13 C           0.0146    5.1299    0.4811 C.ar    1  UNL11      -0.0589
     14 C           1.3516    4.8105    0.6514 C.ar    1  UNL11      -0.0316
     15 C           1.8089    3.5136    0.6863 C.ar    1  UNL11       0.1223
     16 N           3.2015    3.2270    0.8608 N.4     1  UNL11       0.0060
     17 O           3.8874    4.0208    1.5038 O.2     1  UNL11      -0.1300
     18 O           3.7835    2.1094    0.3413 O.2     1  UNL11      -0.3961
     19 C           0.8696    2.5130    0.5427 C.ar    1  UNL11      -0.0195
     20 C           1.3010    0.5436   -3.0304 C.ar    1  UNL11      -0.0561
     21 C           0.8670    0.0012   -4.2294 C.ar    1  UNL11      -0.0585
     22 H          -1.2778   -2.3644   -5.3880 H       1  UNL11       0.0278
     23 H           0.2813   -1.9387   -6.1380 H       1  UNL11       0.0278
     24 H          -1.0885   -0.7138   -6.1097 H       1  UNL11       0.0278
     25 H          -1.4716   -2.1042   -3.1005 H       1  UNL11       0.0620
     26 H          -0.6661   -1.1001   -0.9296 H       1  UNL11       0.0621
     27 H           2.2647    0.4450   -0.3067 H       1  UNL11       0.0634
     28 H           1.1657    1.8057   -0.5368 H       1  UNL11       0.0634
     29 H          -1.5015   -0.4667    0.1544 H       1  UNL11       0.1828
     30 H          -1.9630    4.3191    0.2028 H       1  UNL11       0.0625
     31 H          -0.3005    6.1766    0.4619 H       1  UNL11       0.0618
     32 H           2.0727    5.6023    0.7613 H       1  UNL11       0.0640
     33 H           1.2051    1.4884    0.5626 H       1  UNL11       0.0648
     34 H           2.0853    1.2873   -3.0180 H       1  UNL11       0.0621
     35 H           1.3034    0.3158   -5.1708 H       1  UNL11       0.0620
     36 H           3.2698    1.4988   -0.1499 H       1  UNL11       0.3292
@<TRIPOS>BOND
     1     1     2    1
     2     1    22    1
     3     1    23    1
     4     1    24    1
     5     2     3   ar
     6     3     4   ar
     7     3    25    1
     8     4     5   ar
     9     4    26    1
    10     5     6    1
    11     5    20   ar
    12     6     7    1
    13     6    27    1
    14     6    28    1
    15     7     8    1
    16     8     9   am
    17     8    29    1
    18     9    10    2
    19     9    11    1
    20    11    12   ar
    21    12    13   ar
    22    12    30    1
    23    13    14   ar
    24    13    31    1
    25    14    15   ar
    26    14    32    1
    27    15    16    1
    28    15    19   ar
    29    16    17    2
    30    16    18    1
    31    19    11   ar
    32    19    33    1
    33    20    21   ar
    34    20    34    1
    35    21     2   ar
    36    21    35    1
    37    18    36    1
@<TRIPOS>MOLECULE
*****
 36 37 0 0 0
SMALL
GASTEIGER

@<TRIPOS>ATOM
      1 C          -0.5215   -1.3311   -5.6513 C.3     1  UNL11      -0.0397
      2 C          -0.0844   -0.8072   -4.3383 C.ar    1  UNL11      -0.0504
      3 C          -0.1709    0.5410   -4.0216 C.ar    1  UNL11      -0.0585
      4 C           0.2435    0.9929   -2.7893 C.ar    1  UNL11      -0.0561
      5 C           0.7554    0.1543   -1.8251 C.ar    1  UNL11      -0.0196
      6 C           1.1872    0.7095   -0.5135 C.3     1  UNL11       0.0983
      7 O           0.4528    0.1202    0.4853 O.3     1  UNL11      -0.2749
      8 N          -0.8545    0.3661    0.2769 N.am    1  UNL11      -0.1902
      9 C          -1.6698   -0.4990   -0.4843 C.2     1  UNL11       0.2668
     10 O          -1.1913   -1.5345   -0.9937 O.2     1  UNL11      -0.2681
     11 C          -3.0721   -0.1698   -0.6655 C.ar    1  UNL11       0.0408
     12 C          -4.0616   -1.1448   -0.8239 C.ar    1  UNL11      -0.0494
     13 C          -5.3544   -0.7538   -1.0008 C.ar    1  UNL11      -0.0589
     14 C          -5.6611    0.5967   -1.0213 C.ar    1  UNL11      -0.0316
     15 C          -4.7100    1.5788   -0.8690 C.ar    1  UNL11       0.1223
     16 N          -5.0696    2.9651   -0.9002 N.4     1  UNL11       0.0060
     17 O          -4.4013    3.7591   -0.2391 O.2     1  UNL11      -0.1300
     18 O          -6.1202    3.4264   -1.6357 O.2     1  UNL11      -0.3961
     19 C          -3.4054    1.1664   -0.6900 C.ar    1  UNL11      -0.0195
     20 C           0.8389   -1.1841   -2.1469 C.ar    1  UNL11      -0.0561
     21 C           0.4265   -1.6578   -3.3822 C.ar    1  UNL11      -0.0585
     22 H          -1.0315   -0.5424   -6.2402 H       1  UNL11       0.0278
     23 H          -1.2655   -2.1615   -5.5345 H       1  UNL11       0.0278
     24 H           0.3818   -1.6741   -6.1873 H       1  UNL11       0.0278
     25 H          -0.5799    1.2011   -4.7931 H       1  UNL11       0.0620
     26 H           0.1798    2.0405   -2.5374 H       1  UNL11       0.0621
     27 H           2.2647    0.4450   -0.3067 H       1  UNL11       0.0634
     28 H           1.1657    1.8057   -0.5368 H       1  UNL11       0.0634
     29 H          -1.2680    1.2437    0.7082 H       1  UNL11       0.1828
     30 H          -3.7596   -2.1896   -0.7994 H       1  UNL11       0.0625
     31 H          -6.1463   -1.4974   -1.1245 H       1  UNL11       0.0618
     32 H          -6.6835    0.9029   -1.1626 H       1  UNL11       0.0640
     33 H          -2.6416    1.9186   -0.5727 H       1  UNL11       0.0648
     34 H           1.2348   -1.8627   -1.4047 H       1  UNL11       0.0621
     35 H           0.4977   -2.7124   -3.6238 H       1  UNL11       0.0620
     36 H          -6.6352    2.8297   -2.1424 H       1  UNL11       0.3292
@<TRIPOS>BOND
     1     1     2    1
     2     1    22    1
     3     1    23    1
     4     1    24    1
     5     2     3   ar
     6     3     4   ar
     7     3    25    1
     8     4     5   ar
     9     4    26    1
    10     5     6    1
    11     5    20   ar
    12     6     7    1
    13     6    27    1
    14     6    28    1
    15     7     8    1
    16     8     9   am
    17     8    29    1
    18     9    10    2
    19     9    11    1
    20    11    12   ar
    21    12    13   ar
    22    12    30    1
    23    13    14   ar
    24    13    31    1
    25    14    15   ar
    26    14    32    1
    27    15    16    1
    28    15    19   ar
    29    16    17    2
    30    16    18    1
    31    19    11   ar
    32    19    33    1
    33    20    21   ar
    34    20    34    1
    35    21     2   ar
    36    21    35    1
    37    18    36    1
@<TRIPOS>MOLECULE
*****
 36 37 0 0 0
SMALL
GASTEIGER

@<TRIPOS>ATOM
      1 C          -0.5215   -1.3311   -5.6513 C.3     1  UNL11      -0.0397
      2 C          -0.0844   -0.8072   -4.3383 C.ar    1  UNL11      -0.0504
      3 C          -0.1709    0.5410   -4.0216 C.ar    1  UNL11      -0.0585
      4 C           0.2435    0.9929   -2.7893 C.ar    1  UNL11      -0.0561
      5 C           0.7554    0.1543   -1.8251 C.ar    1  UNL11      -0.0196
      6 C           1.1872    0.7095   -0.5135 C.3     1  UNL11       0.0983
      7 O           0.4528    0.1202    0.4853 O.3     1  UNL11      -0.2749
      8 N          -0.8545    0.3661    0.2769 N.am    1  UNL11      -0.1902
      9 C          -1.8624   -0.5354    0.6815 C.2     1  UNL11       0.2668
     10 O          -3.0653   -0.2811    0.4600 O.2     1  UNL11      -0.2681
     11 C          -1.4820   -1.7629    1.3570 C.ar    1  UNL11       0.0408
     12 C          -0.3357   -1.8630    2.1512 C.ar    1  UNL11      -0.0494
     13 C          -0.0413   -3.0544    2.7423 C.ar    1  UNL11      -0.0589
     14 C          -0.8800   -4.1388    2.5444 C.ar    1  UNL11      -0.0316
     15 C          -2.0140   -4.0715    1.7685 C.ar    1  UNL11       0.1223
     16 N          -2.8526   -5.2186    1.5868 N.4     1  UNL11       0.0060
     17 O          -2.9081   -6.0531    2.4893 O.2     1  UNL11      -0.1300
     18 O          -3.5856   -5.4099    0.4538 O.2     1  UNL11      -0.3961
     19 C          -2.2985   -2.8576    1.1773 C.ar    1  UNL11      -0.0195
     20 C           0.8389   -1.1841   -2.1469 C.ar    1  UNL11      -0.0561
     21 C           0.4265   -1.6578   -3.3822 C.ar    1  UNL11      -0.0585
     22 H          -1.0315   -0.5424   -6.2402 H       1  UNL11       0.0278
     23 H          -1.2655   -2.1615   -5.5345 H       1  UNL11       0.0278
     24 H           0.3818   -1.6741   -6.1873 H       1  UNL11       0.0278
     25 H          -0.5799    1.2011   -4.7931 H       1  UNL11       0.0620
     26 H           0.1798    2.0405   -2.5374 H       1  UNL11       0.0621
     27 H           2.2647    0.4450   -0.3067 H       1  UNL11       0.0634
     28 H           1.1657    1.8057   -0.5368 H       1  UNL11       0.0634
     29 H          -1.1163    1.2735   -0.2081 H       1  UNL11       0.1828
     30 H           0.2846   -0.9771    2.2689 H       1  UNL11       0.0625
     31 H           0.8481   -3.1570    3.3697 H       1  UNL11       0.0618
     32 H          -0.6443   -5.0796    3.0117 H       1  UNL11       0.0640
     33 H          -3.1801   -2.7818    0.5610 H       1  UNL11       0.0648
     34 H           1.2348   -1.8627   -1.4047 H       1  UNL11       0.0621
     35 H           0.4977   -2.7124   -3.6238 H       1  UNL11       0.0620
     36 H          -3.5502   -4.7802   -0.2391 H       1  UNL11       0.3292
@<TRIPOS>BOND
     1     1     2    1
     2     1    22    1
     3     1    23    1
     4     1    24    1
     5     2     3   ar
     6     3     4   ar
     7     3    25    1
     8     4     5   ar
     9     4    26    1
    10     5     6    1
    11     5    20   ar
    12     6     7    1
    13     6    27    1
    14     6    28    1
    15     7     8    1
    16     8     9   am
    17     8    29    1
    18     9    10    2
    19     9    11    1
    20    11    12   ar
    21    12    13   ar
    22    12    30    1
    23    13    14   ar
    24    13    31    1
    25    14    15   ar
    26    14    32    1
    27    15    16    1
    28    15    19   ar
    29    16    17    2
    30    16    18    1
    31    19    11   ar
    32    19    33    1
    33    20    21   ar
    34    20    34    1
    35    21     2   ar
    36    21    35    1
    37    18    36    1
@<TRIPOS>MOLECULE
*****
 36 37 0 0 0
SMALL
GASTEIGER

@<TRIPOS>ATOM
      1 C          -0.6082   -1.4016   -5.5929 C.3     1  UNL11      -0.0397
      2 C          -0.1509   -0.8604   -4.2939 C.ar    1  UNL11      -0.0504
      3 C          -1.0076   -0.1783   -3.4417 C.ar    1  UNL11      -0.0585
      4 C          -0.5480    0.3100   -2.2397 C.ar    1  UNL11      -0.0561
      5 C           0.7554    0.1543   -1.8251 C.ar    1  UNL11      -0.0196
      6 C           1.1872    0.7095   -0.5135 C.3     1  UNL11       0.0983
      7 O           0.4528    0.1202    0.4853 O.3     1  UNL11      -0.2749
      8 N          -0.8545    0.3661    0.2769 N.am    1  UNL11      -0.1902
      9 C          -1.6698   -0.4990   -0.4843 C.2     1  UNL11       0.2668
     10 O          -1.1913   -1.5345   -0.9937 O.2     1  UNL11      -0.2681
     11 C          -3.0721   -0.1698   -0.6655 C.ar    1  UNL11       0.0408
     12 C          -3.9495   -0.9802   -1.3923 C.ar    1  UNL11      -0.0494
     13 C          -5.2493   -0.5954   -1.5265 C.ar    1  UNL11      -0.0589
     14 C          -5.6735    0.5872   -0.9433 C.ar    1  UNL11      -0.0316
     15 C          -4.8341    1.4054   -0.2233 C.ar    1  UNL11       0.1223
     16 N          -5.3129    2.6227    0.3608 N.4     1  UNL11       0.0060
     17 O          -6.4931    2.6839    0.7037 O.2     1  UNL11      -0.1300
     18 O          -4.5059    3.7050    0.5475 O.2     1  UNL11      -0.3961
     19 C          -3.5209    1.0013   -0.0960 C.ar    1  UNL11      -0.0195
     20 C           1.6013   -0.5240   -2.6773 C.ar    1  UNL11      -0.0561
     21 C           1.1568   -1.0231   -3.8913 C.ar    1  UNL11      -0.0585
     22 H          -1.7081   -1.3064   -5.6941 H       1  UNL11       0.0278
     23 H          -0.3814   -2.4957   -5.6841 H       1  UNL11       0.0278
     24 H          -0.1070   -0.8203   -6.3878 H       1  UNL11       0.0278
     25 H          -2.0424   -0.0595   -3.7780 H       1  UNL11       0.0620
     26 H          -1.2092    0.8423   -1.5730 H       1  UNL11       0.0621
     27 H           2.2647    0.4450   -0.3067 H       1  UNL11       0.0634
     28 H           1.1657    1.8057   -0.5368 H       1  UNL11       0.0634
     29 H          -1.2680    1.2437    0.7082 H       1  UNL11       0.1828
     30 H          -3.5580   -1.8971   -1.8277 H       1  UNL11       0.0625
     31 H          -5.9550   -1.2133   -2.0880 H       1  UNL11       0.0618
     32 H          -6.7009    0.8895   -1.0520 H       1  UNL11       0.0640
     33 H          -2.8432    1.6288    0.4606 H       1  UNL11       0.0648
     34 H           2.6290   -0.6616   -2.3721 H       1  UNL11       0.0621
     35 H           1.8316   -1.5543   -4.5531 H       1  UNL11       0.0620
     36 H          -3.6058    3.6683    0.2897 H       1  UNL11       0.3292
@<TRIPOS>BOND
     1     1     2    1
     2     1    22    1
     3     1    23    1
     4     1    24    1
     5     2     3   ar
     6     3     4   ar
     7     3    25    1
     8     4     5   ar
     9     4    26    1
    10     5     6    1
    11     5    20   ar
    12     6     7    1
    13     6    27    1
    14     6    28    1
    15     7     8    1
    16     8     9   am
    17     8    29    1
    18     9    10    2
    19     9    11    1
    20    11    12   ar
    21    12    13   ar
    22    12    30    1
    23    13    14   ar
    24    13    31    1
    25    14    15   ar
    26    14    32    1
    27    15    16    1
    28    15    19   ar
    29    16    17    2
    30    16    18    1
    31    19    11   ar
    32    19    33    1
    33    20    21   ar
    34    20    34    1
    35    21     2   ar
    36    21    35    1
    37    18    36    1
@<TRIPOS>MOLECULE
*****
 36 37 0 0 0
SMALL
GASTEIGER

@<TRIPOS>ATOM
      1 C          -0.3737   -1.4938   -5.6311 C.3     1  UNL11      -0.0397
      2 C           0.0273   -0.9317   -4.3224 C.ar    1  UNL11      -0.0504
      3 C           1.3266   -1.0367   -3.8469 C.ar    1  UNL11      -0.0585
      4 C           1.6646   -0.5000   -2.6252 C.ar    1  UNL11      -0.0561
      5 C           0.7554    0.1543   -1.8251 C.ar    1  UNL11      -0.0196
      6 C           1.1872    0.7095   -0.5135 C.3     1  UNL11       0.0983
      7 O           0.4528    0.1202    0.4853 O.3     1  UNL11      -0.2749
      8 N          -0.8545    0.3661    0.2769 N.am    1  UNL11      -0.1902
      9 C          -1.8564   -0.1033    1.1534 C.2     1  UNL11       0.2668
     10 O          -1.5511   -0.7713    2.1640 O.2     1  UNL11      -0.2681
     11 C          -3.2462    0.2021    0.8652 C.ar    1  UNL11       0.0408
     12 C          -3.6393    1.3599    0.1872 C.ar    1  UNL11      -0.0494
     13 C          -4.9653    1.5798   -0.0342 C.ar    1  UNL11      -0.0589
     14 C          -5.8937    0.6559    0.4162 C.ar    1  UNL11      -0.0316
     15 C          -5.5379   -0.4915    1.0865 C.ar    1  UNL11       0.1223
     16 N          -6.5309   -1.4196    1.5388 N.4     1  UNL11       0.0060
     17 O          -7.7142   -1.1678    1.3143 O.2     1  UNL11      -0.1300
     18 O          -6.2058   -2.5642    2.2034 O.2     1  UNL11      -0.3961
     19 C          -4.1910   -0.6999    1.3022 C.ar    1  UNL11      -0.0195
     20 C          -0.5340    0.2545   -2.3038 C.ar    1  UNL11      -0.0561
     21 C          -0.8931   -0.2792   -3.5313 C.ar    1  UNL11      -0.0585
     22 H           0.5113   -1.8555   -6.1923 H       1  UNL11       0.0278
     23 H          -0.8572   -0.7179   -6.2800 H       1  UNL11       0.0278
     24 H          -1.0612   -2.3357   -5.4322 H       1  UNL11       0.0278
     25 H           2.0437   -1.5575   -4.4892 H       1  UNL11       0.0620
     26 H           2.6732   -0.5794   -2.2494 H       1  UNL11       0.0621
     27 H           2.2647    0.4450   -0.3067 H       1  UNL11       0.0634
     28 H           1.1657    1.8057   -0.5368 H       1  UNL11       0.0634
     29 H          -1.1209    0.9344   -0.5794 H       1  UNL11       0.1828
     30 H          -2.8643    2.0488   -0.1418 H       1  UNL11       0.0625
     31 H          -5.2974    2.4765   -0.5641 H       1  UNL11       0.0618
     32 H          -6.9411    0.8329    0.2410 H       1  UNL11       0.0640
     33 H          -3.8882   -1.5906    1.8294 H       1  UNL11       0.0648
     34 H          -1.2653    0.7667   -1.6946 H       1  UNL11       0.0621
     35 H          -1.9104   -0.1947   -3.8967 H       1  UNL11       0.0620
     36 H          -5.3076   -2.7649    2.3792 H       1  UNL11       0.3292
@<TRIPOS>BOND
     1     1     2    1
     2     1    22    1
     3     1    23    1
     4     1    24    1
     5     2     3   ar
     6     3     4   ar
     7     3    25    1
     8     4     5   ar
     9     4    26    1
    10     5     6    1
    11     5    20   ar
    12     6     7    1
    13     6    27    1
    14     6    28    1
    15     7     8    1
    16     8     9   am
    17     8    29    1
    18     9    10    2
    19     9    11    1
    20    11    12   ar
    21    12    13   ar
    22    12    30    1
    23    13    14   ar
    24    13    31    1
    25    14    15   ar
    26    14    32    1
    27    15    16    1
    28    15    19   ar
    29    16    17    2
    30    16    18    1
    31    19    11   ar
    32    19    33    1
    33    20    21   ar
    34    20    34    1
    35    21     2   ar
    36    21    35    1
    37    18    36    1
@<TRIPOS>MOLECULE
*****
 36 37 0 0 0
SMALL
GASTEIGER

@<TRIPOS>ATOM
      1 C           0.2356    6.4170   -0.5156 C.3     1  UNL11      -0.0397
      2 C           0.4776    4.9572   -0.5168 C.ar    1  UNL11      -0.0504
      3 C           0.1825    4.1664   -1.6182 C.ar    1  UNL11      -0.0585
      4 C           0.4226    2.8114   -1.5846 C.ar    1  UNL11      -0.0561
      5 C           0.9549    2.1792   -0.4838 C.ar    1  UNL11      -0.0196
      6 C           1.1872    0.7095   -0.5135 C.3     1  UNL11       0.0983
      7 O           0.4528    0.1202    0.4853 O.3     1  UNL11      -0.2749
      8 N          -0.8545    0.3661    0.2769 N.am    1  UNL11      -0.1902
      9 C          -1.5016    1.4980    0.8176 C.2     1  UNL11       0.2668
     10 O          -0.8671    2.3165    1.5162 O.2     1  UNL11      -0.2681
     11 C          -2.9143    1.6989    0.5493 C.ar    1  UNL11       0.0408
     12 C          -3.4944    2.9686    0.4717 C.ar    1  UNL11      -0.0494
     13 C          -4.8305    3.0725    0.2277 C.ar    1  UNL11      -0.0589
     14 C          -5.5847    1.9225    0.0632 C.ar    1  UNL11      -0.0316
     15 C          -5.0428    0.6600    0.1346 C.ar    1  UNL11       0.1223
     16 N          -5.8596   -0.5041   -0.0378 N.4     1  UNL11       0.0060
     17 O          -7.0615   -0.3504   -0.2522 O.2     1  UNL11      -0.1300
     18 O          -5.3483   -1.7658    0.0263 O.2     1  UNL11      -0.3961
     19 C          -3.6881    0.5718    0.3817 C.ar    1  UNL11      -0.0195
     20 C           1.2451    2.9713    0.6073 C.ar    1  UNL11      -0.0561
     21 C           1.0107    4.3370    0.5922 C.ar    1  UNL11      -0.0585
     22 H          -0.0603    6.7681   -1.5247 H       1  UNL11       0.0278
     23 H           1.1637    6.9863   -0.2485 H       1  UNL11       0.0278
     24 H          -0.5785    6.6162    0.2044 H       1  UNL11       0.0278
     25 H          -0.2394    4.6766   -2.4898 H       1  UNL11       0.0620
     26 H           0.1942    2.1909   -2.4377 H       1  UNL11       0.0621
     27 H           0.8094    0.2682   -1.4811 H       1  UNL11       0.0634
     28 H           2.2621    0.4923   -0.5056 H       1  UNL11       0.0634
     29 H          -1.3996   -0.3247   -0.3171 H       1  UNL11       0.1828
     30 H          -2.8511    3.8349    0.6101 H       1  UNL11       0.0625
     31 H          -5.3068    4.0543    0.1602 H       1  UNL11       0.0618
     32 H          -6.6406    2.0075   -0.1282 H       1  UNL11       0.0640
     33 H          -3.2416   -0.4077    0.4463 H       1  UNL11       0.0648
     34 H           1.6668    2.4979    1.4827 H       1  UNL11       0.0621
     35 H           1.2425    4.9492    1.4565 H       1  UNL11       0.0620
     36 H          -4.4344   -1.8933    0.1890 H       1  UNL11       0.3292
@<TRIPOS>BOND
     1     1     2    1
     2     1    22    1
     3     1    23    1
     4     1    24    1
     5     2     3   ar
     6     3     4   ar
     7     3    25    1
     8     4     5   ar
     9     4    26    1
    10     5     6    1
    11     5    20   ar
    12     6     7    1
    13     6    27    1
    14     6    28    1
    15     7     8    1
    16     8     9   am
    17     8    29    1
    18     9    10    2
    19     9    11    1
    20    11    12   ar
    21    12    13   ar
    22    12    30    1
    23    13    14   ar
    24    13    31    1
    25    14    15   ar
    26    14    32    1
    27    15    16    1
    28    15    19   ar
    29    16    17    2
    30    16    18    1
    31    19    11   ar
    32    19    33    1
    33    20    21   ar
    34    20    34    1
    35    21     2   ar
    36    21    35    1
    37    18    36    1
@<TRIPOS>MOLECULE
*****
 36 37 0 0 0
SMALL
GASTEIGER

@<TRIPOS>ATOM
      1 C          -0.3737   -1.4938   -5.6311 C.3     1  UNL11      -0.0397
      2 C           0.0273   -0.9317   -4.3224 C.ar    1  UNL11      -0.0504
      3 C           1.3266   -1.0367   -3.8469 C.ar    1  UNL11      -0.0585
      4 C           1.6646   -0.5000   -2.6252 C.ar    1  UNL11      -0.0561
      5 C           0.7554    0.1543   -1.8251 C.ar    1  UNL11      -0.0196
      6 C           1.1872    0.7095   -0.5135 C.3     1  UNL11       0.0983
      7 O           0.4528    0.1202    0.4853 O.3     1  UNL11      -0.2749
      8 N          -0.8545    0.3661    0.2769 N.am    1  UNL11      -0.1902
      9 C          -1.6479    1.0586    1.2168 C.2     1  UNL11       0.2668
     10 O          -2.8614    1.2576    0.9964 O.2     1  UNL11      -0.2681
     11 C          -1.0349    1.5348    2.4437 C.ar    1  UNL11       0.0408
     12 C           0.3174    1.3364    2.7378 C.ar    1  UNL11      -0.0494
     13 C           0.8144    1.8041    3.9167 C.ar    1  UNL11      -0.0589
     14 C          -0.0273    2.4634    4.7973 C.ar    1  UNL11      -0.0316
     15 C          -1.3615    2.6732    4.5363 C.ar    1  UNL11       0.1223
     16 N          -2.1984    3.3570    5.4765 N.4     1  UNL11       0.0060
     17 O          -3.3912    3.0586    5.5251 O.2     1  UNL11      -0.1300
     18 O          -1.7158    4.3189    6.3128 O.2     1  UNL11      -0.3961
     19 C          -1.8493    2.1940    3.3377 C.ar    1  UNL11      -0.0195
     20 C          -0.5340    0.2545   -2.3038 C.ar    1  UNL11      -0.0561
     21 C          -0.8931   -0.2792   -3.5313 C.ar    1  UNL11      -0.0585
     22 H           0.5113   -1.8555   -6.1923 H       1  UNL11       0.0278
     23 H          -0.8572   -0.7179   -6.2800 H       1  UNL11       0.0278
     24 H          -1.0612   -2.3357   -5.4322 H       1  UNL11       0.0278
     25 H           2.0437   -1.5575   -4.4892 H       1  UNL11       0.0620
     26 H           2.6732   -0.5794   -2.2494 H       1  UNL11       0.0621
     27 H           2.2647    0.4450   -0.3067 H       1  UNL11       0.0634
     28 H           1.1657    1.8057   -0.5368 H       1  UNL11       0.0634
     29 H          -1.2846    0.0212   -0.6304 H       1  UNL11       0.1828
     30 H           0.9286    0.8109    2.0072 H       1  UNL11       0.0625
     31 H           1.8689    1.6633    4.1683 H       1  UNL11       0.0618
     32 H           0.3679    2.8308    5.7288 H       1  UNL11       0.0640
     33 H          -2.8935    2.3430    3.1131 H       1  UNL11       0.0648
     34 H          -1.2653    0.7667   -1.6946 H       1  UNL11       0.0621
     35 H          -1.9104   -0.1947   -3.8967 H       1  UNL11       0.0620
     36 H          -0.8090    4.5533    6.2835 H       1  UNL11       0.3292
@<TRIPOS>BOND
     1     1     2    1
     2     1    22    1
     3     1    23    1
     4     1    24    1
     5     2     3   ar
     6     3     4   ar
     7     3    25    1
     8     4     5   ar
     9     4    26    1
    10     5     6    1
    11     5    20   ar
    12     6     7    1
    13     6    27    1
    14     6    28    1
    15     7     8    1
    16     8     9   am
    17     8    29    1
    18     9    10    2
    19     9    11    1
    20    11    12   ar
    21    12    13   ar
    22    12    30    1
    23    13    14   ar
    24    13    31    1
    25    14    15   ar
    26    14    32    1
    27    15    16    1
    28    15    19   ar
    29    16    17    2
    30    16    18    1
    31    19    11   ar
    32    19    33    1
    33    20    21   ar
    34    20    34    1
    35    21     2   ar
    36    21    35    1
    37    18    36    1
@<TRIPOS>MOLECULE
*****
 36 37 0 0 0
SMALL
GASTEIGER

@<TRIPOS>ATOM
      1 C           0.3592    6.4362   -0.4999 C.3     1  UNL11      -0.0397
      2 C           0.5717    4.9718   -0.5055 C.ar    1  UNL11      -0.0504
      3 C           1.4005    4.3552   -1.4319 C.ar    1  UNL11      -0.0585
      4 C           1.5763    2.9902   -1.4063 C.ar    1  UNL11      -0.0561
      5 C           0.9549    2.1792   -0.4838 C.ar    1  UNL11      -0.0196
      6 C           1.1872    0.7095   -0.5135 C.3     1  UNL11       0.0983
      7 O           0.4528    0.1202    0.4853 O.3     1  UNL11      -0.2749
      8 N          -0.8545    0.3661    0.2769 N.am    1  UNL11      -0.1902
      9 C          -1.7935   -0.6709    0.0893 C.2     1  UNL11       0.2668
     10 O          -2.9971   -0.4057   -0.1150 O.2     1  UNL11      -0.2681
     11 C          -1.3412   -2.0498    0.1354 C.ar    1  UNL11       0.0408
     12 C          -0.0060   -2.3987    0.3591 C.ar    1  UNL11      -0.0494
     13 C           0.3405   -3.7160    0.3761 C.ar    1  UNL11      -0.0589
     14 C          -0.6333   -4.6793    0.1710 C.ar    1  UNL11      -0.0316
     15 C          -1.9544   -4.3672   -0.0521 C.ar    1  UNL11       0.1223
     16 N          -2.9296   -5.3950   -0.2635 N.4     1  UNL11       0.0060
     17 O          -2.5664   -6.4501   -0.7819 O.2     1  UNL11      -0.1300
     18 O          -4.2363   -5.2401    0.0914 O.2     1  UNL11      -0.3961
     19 C          -2.2892   -3.0286   -0.0657 C.ar    1  UNL11      -0.0195
     20 C           0.1323    2.7989    0.4335 C.ar    1  UNL11      -0.0561
     21 C          -0.0569    4.1716    0.4236 C.ar    1  UNL11      -0.0585
     22 H           1.0424    6.9362   -1.2156 H       1  UNL11       0.0278
     23 H           0.5838    6.8794    0.5051 H       1  UNL11       0.0278
     24 H          -0.6903    6.6188   -0.7935 H       1  UNL11       0.0278
     25 H           1.8917    5.0068   -2.1614 H       1  UNL11       0.0620
     26 H           2.2187    2.5046   -2.1249 H       1  UNL11       0.0621
     27 H           0.8094    0.2682   -1.4811 H       1  UNL11       0.0634
     28 H           2.2621    0.4923   -0.5056 H       1  UNL11       0.0634
     29 H          -1.1706    1.3794    0.2576 H       1  UNL11       0.1828
     30 H           0.7138   -1.5976    0.5130 H       1  UNL11       0.0625
     31 H           1.3776   -4.0140    0.5514 H       1  UNL11       0.0618
     32 H          -0.3565   -5.7196    0.1837 H       1  UNL11       0.0640
     33 H          -3.3182   -2.7595   -0.2430 H       1  UNL11       0.0648
     34 H          -0.3643    2.1831    1.1700 H       1  UNL11       0.0621
     35 H          -0.7066    4.6472    1.1497 H       1  UNL11       0.0620
     36 H          -4.5228   -4.4404    0.4869 H       1  UNL11       0.3292
@<TRIPOS>BOND
     1     1     2    1
     2     1    22    1
     3     1    23    1
     4     1    24    1
     5     2     3   ar
     6     3     4   ar
     7     3    25    1
     8     4     5   ar
     9     4    26    1
    10     5     6    1
    11     5    20   ar
    12     6     7    1
    13     6    27    1
    14     6    28    1
    15     7     8    1
    16     8     9   am
    17     8    29    1
    18     9    10    2
    19     9    11    1
    20    11    12   ar
    21    12    13   ar
    22    12    30    1
    23    13    14   ar
    24    13    31    1
    25    14    15   ar
    26    14    32    1
    27    15    16    1
    28    15    19   ar
    29    16    17    2
    30    16    18    1
    31    19    11   ar
    32    19    33    1
    33    20    21   ar
    34    20    34    1
    35    21     2   ar
    36    21    35    1
    37    18    36    1
@<TRIPOS>MOLECULE
*****
 36 37 0 0 0
SMALL
GASTEIGER

@<TRIPOS>ATOM
      1 C           0.1683    6.4029   -0.3485 C.3     1  UNL11      -0.0397
      2 C           0.4271    4.9466   -0.3893 C.ar    1  UNL11      -0.0504
      3 C          -0.5240    4.0216    0.0171 C.ar    1  UNL11      -0.0585
      4 C          -0.2493    2.6739   -0.0363 C.ar    1  UNL11      -0.0561
      5 C           0.9549    2.1792   -0.4838 C.ar    1  UNL11      -0.0196
      6 C           1.1872    0.7095   -0.5135 C.3     1  UNL11       0.0983
      7 O           0.4528    0.1202    0.4853 O.3     1  UNL11      -0.2749
      8 N          -0.8545    0.3661    0.2769 N.am    1  UNL11      -0.1902
      9 C          -1.5016    1.4980    0.8176 C.2     1  UNL11       0.2668
     10 O          -2.7197    1.6879    0.6149 O.2     1  UNL11      -0.2681
     11 C          -0.7328    2.4376    1.6139 C.ar    1  UNL11       0.0408
     12 C          -1.3009    3.5745    2.1964 C.ar    1  UNL11      -0.0494
     13 C          -0.5089    4.4139    2.9201 C.ar    1  UNL11      -0.0589
     14 C           0.8383    4.1256    3.0627 C.ar    1  UNL11      -0.0316
     15 C           1.4259    3.0157    2.5012 C.ar    1  UNL11       0.1223
     16 N           2.8246    2.7564    2.6701 N.4     1  UNL11       0.0060
     17 O           3.4925    3.5510    3.3309 O.2     1  UNL11      -0.1300
     18 O           3.4315    1.6639    2.1263 O.2     1  UNL11      -0.3961
     19 C           0.6101    2.1751    1.7719 C.ar    1  UNL11      -0.0195
     20 C           1.8955    3.1043   -0.8855 C.ar    1  UNL11      -0.0561
     21 C           1.6372    4.4650   -0.8392 C.ar    1  UNL11      -0.0585
     22 H          -0.8919    6.6077   -0.0973 H       1  UNL11       0.0278
     23 H           0.3485    6.8797   -1.3470 H       1  UNL11       0.0278
     24 H           0.8271    6.8339    0.4268 H       1  UNL11       0.0278
     25 H          -1.4791    4.4227    0.3706 H       1  UNL11       0.0620
     26 H          -0.9845    1.9495    0.2794 H       1  UNL11       0.0621
     27 H           0.8094    0.2682   -1.4811 H       1  UNL11       0.0634
     28 H           2.2621    0.4923   -0.5056 H       1  UNL11       0.0634
     29 H          -1.3996   -0.3247   -0.3171 H       1  UNL11       0.1828
     30 H          -2.3646    3.7484    2.0489 H       1  UNL11       0.0625
     31 H          -0.9302    5.3081    3.3872 H       1  UNL11       0.0618
     32 H           1.4622    4.7914    3.6340 H       1  UNL11       0.0640
     33 H           1.0493    1.3007    1.3186 H       1  UNL11       0.0648
     34 H           2.8478    2.7398   -1.2438 H       1  UNL11       0.0621
     35 H           2.3850    5.1827   -1.1573 H       1  UNL11       0.0620
     36 H           2.9315    1.0530    1.6215 H       1  UNL11       0.3292
@<TRIPOS>BOND
     1     1     2    1
     2     1    22    1
     3     1    23    1
     4     1    24    1
     5     2     3   ar
     6     3     4   ar
     7     3    25    1
     8     4     5   ar
     9     4    26    1
    10     5     6    1
    11     5    20   ar
    12     6     7    1
    13     6    27    1
    14     6    28    1
    15     7     8    1
    16     8     9   am
    17     8    29    1
    18     9    10    2
    19     9    11    1
    20    11    12   ar
    21    12    13   ar
    22    12    30    1
    23    13    14   ar
    24    13    31    1
    25    14    15   ar
    26    14    32    1
    27    15    16    1
    28    15    19   ar
    29    16    17    2
    30    16    18    1
    31    19    11   ar
    32    19    33    1
    33    20    21   ar
    34    20    34    1
    35    21     2   ar
    36    21    35    1
    37    18    36    1
@<TRIPOS>MOLECULE
*****
 36 37 0 0 0
SMALL
GASTEIGER

@<TRIPOS>ATOM
      1 C          -0.3737   -1.4938   -5.6311 C.3     1  UNL11      -0.0397
      2 C           0.0273   -0.9317   -4.3224 C.ar    1  UNL11      -0.0504
      3 C           1.3266   -1.0367   -3.8469 C.ar    1  UNL11      -0.0585
      4 C           1.6646   -0.5000   -2.6252 C.ar    1  UNL11      -0.0561
      5 C           0.7554    0.1543   -1.8251 C.ar    1  UNL11      -0.0196
      6 C           1.1872    0.7095   -0.5135 C.3     1  UNL11       0.0983
      7 O           0.4528    0.1202    0.4853 O.3     1  UNL11      -0.2749
      8 N          -0.8545    0.3661    0.2769 N.am    1  UNL11      -0.1902
      9 C          -1.6698   -0.4990   -0.4843 C.2     1  UNL11       0.2668
     10 O          -1.1913   -1.5345   -0.9937 O.2     1  UNL11      -0.2681
     11 C          -3.0721   -0.1698   -0.6655 C.ar    1  UNL11       0.0408
     12 C          -4.0616   -1.1448   -0.8239 C.ar    1  UNL11      -0.0494
     13 C          -5.3544   -0.7538   -1.0008 C.ar    1  UNL11      -0.0589
     14 C          -5.6611    0.5967   -1.0213 C.ar    1  UNL11      -0.0316
     15 C          -4.7100    1.5788   -0.8690 C.ar    1  UNL11       0.1223
     16 N          -5.0696    2.9651   -0.9002 N.4     1  UNL11       0.0060
     17 O          -4.2447    3.7754   -1.3211 O.2     1  UNL11      -0.1300
     18 O          -6.2887    3.4086   -0.4825 O.2     1  UNL11      -0.3961
     19 C          -3.4054    1.1664   -0.6900 C.ar    1  UNL11      -0.0195
     20 C          -0.5340    0.2545   -2.3038 C.ar    1  UNL11      -0.0561
     21 C          -0.8931   -0.2792   -3.5313 C.ar    1  UNL11      -0.0585
     22 H           0.5113   -1.8555   -6.1923 H       1  UNL11       0.0278
     23 H          -0.8572   -0.7179   -6.2800 H       1  UNL11       0.0278
     24 H          -1.0612   -2.3357   -5.4322 H       1  UNL11       0.0278
     25 H           2.0437   -1.5575   -4.4892 H       1  UNL11       0.0620
     26 H           2.6732   -0.5794   -2.2494 H       1  UNL11       0.0621
     27 H           2.2647    0.4450   -0.3067 H       1  UNL11       0.0634
     28 H           1.1657    1.8057   -0.5368 H       1  UNL11       0.0634
     29 H          -1.2680    1.2437    0.7082 H       1  UNL11       0.1828
     30 H          -3.7596   -2.1896   -0.7994 H       1  UNL11       0.0625
     31 H          -6.1463   -1.4974   -1.1245 H       1  UNL11       0.0618
     32 H          -6.6835    0.9029   -1.1626 H       1  UNL11       0.0640
     33 H          -2.6416    1.9186   -0.5727 H       1  UNL11       0.0648
     34 H          -1.2653    0.7667   -1.6946 H       1  UNL11       0.0621
     35 H          -1.9104   -0.1947   -3.8967 H       1  UNL11       0.0620
     36 H          -6.9237    2.7995   -0.1603 H       1  UNL11       0.3292
@<TRIPOS>BOND
     1     1     2    1
     2     1    22    1
     3     1    23    1
     4     1    24    1
     5     2     3   ar
     6     3     4   ar
     7     3    25    1
     8     4     5   ar
     9     4    26    1
    10     5     6    1
    11     5    20   ar
    12     6     7    1
    13     6    27    1
    14     6    28    1
    15     7     8    1
    16     8     9   am
    17     8    29    1
    18     9    10    2
    19     9    11    1
    20    11    12   ar
    21    12    13   ar
    22    12    30    1
    23    13    14   ar
    24    13    31    1
    25    14    15   ar
    26    14    32    1
    27    15    16    1
    28    15    19   ar
    29    16    17    2
    30    16    18    1
    31    19    11   ar
    32    19    33    1
    33    20    21   ar
    34    20    34    1
    35    21     2   ar
    36    21    35    1
    37    18    36    1
@<TRIPOS>MOLECULE
*****
 36 37 0 0 0
SMALL
GASTEIGER

@<TRIPOS>ATOM
      1 C          -0.4030   -1.3777   -5.6706 C.3     1  UNL11      -0.0397
      2 C           0.0056   -0.8432   -4.3527 C.ar    1  UNL11      -0.0504
      3 C           1.0086    0.1072   -4.2264 C.ar    1  UNL11      -0.0585
      4 C           1.3616    0.5836   -2.9841 C.ar    1  UNL11      -0.0561
      5 C           0.7554    0.1543   -1.8251 C.ar    1  UNL11      -0.0196
      6 C           1.1872    0.7095   -0.5135 C.3     1  UNL11       0.0983
      7 O           0.4528    0.1202    0.4853 O.3     1  UNL11      -0.2749
      8 N          -0.8545    0.3661    0.2769 N.am    1  UNL11      -0.1902
      9 C          -1.6698   -0.4990   -0.4843 C.2     1  UNL11       0.2668
     10 O          -1.1913   -1.5345   -0.9937 O.2     1  UNL11      -0.2681
     11 C          -3.0721   -0.1698   -0.6655 C.ar    1  UNL11       0.0408
     12 C          -3.8070    0.5488    0.2822 C.ar    1  UNL11      -0.0494
     13 C          -5.1229    0.8074    0.0429 C.ar    1  UNL11      -0.0589
     14 C          -5.7041    0.3539   -1.1297 C.ar    1  UNL11      -0.0316
     15 C          -5.0075   -0.3557   -2.0803 C.ar    1  UNL11       0.1223
     16 N          -5.6482   -0.8098   -3.2783 N.4     1  UNL11       0.0060
     17 O          -6.8402   -0.5506   -3.4401 O.2     1  UNL11      -0.1300
     18 O          -4.9814   -1.5129   -4.2367 O.2     1  UNL11      -0.3961
     19 C          -3.6756   -0.6089   -1.8232 C.ar    1  UNL11      -0.0195
     20 C          -0.2401   -0.7907   -1.9582 C.ar    1  UNL11      -0.0561
     21 C          -0.6094   -1.2819   -3.2003 C.ar    1  UNL11      -0.0585
     22 H           0.0900   -0.8199   -6.4920 H       1  UNL11       0.0278
     23 H          -1.5059   -1.2631   -5.8356 H       1  UNL11       0.0278
     24 H          -0.1004   -2.4399   -5.7044 H       1  UNL11       0.0278
     25 H           1.4850    0.4441   -5.1524 H       1  UNL11       0.0620
     26 H           2.1417    1.3221   -2.8792 H       1  UNL11       0.0621
     27 H           2.2647    0.4450   -0.3067 H       1  UNL11       0.0634
     28 H           1.1657    1.8057   -0.5368 H       1  UNL11       0.0634
     29 H          -1.2680    1.2437    0.7082 H       1  UNL11       0.1828
     30 H          -3.2959    0.8781    1.1843 H       1  UNL11       0.0625
     31 H          -5.7179    1.3694    0.7676 H       1  UNL11       0.0618
     32 H          -6.7445    0.5586   -1.3157 H       1  UNL11       0.0640
     33 H          -3.1101   -1.1673   -2.5521 H       1  UNL11       0.0648
     34 H          -0.7331   -1.1410   -1.0624 H       1  UNL11       0.0621
     35 H          -1.3933   -2.0253   -3.2921 H       1  UNL11       0.0620
     36 H          -4.0736   -1.7153   -4.1228 H       1  UNL11       0.3292
@<TRIPOS>BOND
     1     1     2    1
     2     1    22    1
     3     1    23    1
     4     1    24    1
     5     2     3   ar
     6     3     4   ar
     7     3    25    1
     8     4     5   ar
     9     4    26    1
    10     5     6    1
    11     5    20   ar
    12     6     7    1
    13     6    27    1
    14     6    28    1
    15     7     8    1
    16     8     9   am
    17     8    29    1
    18     9    10    2
    19     9    11    1
    20    11    12   ar
    21    12    13   ar
    22    12    30    1
    23    13    14   ar
    24    13    31    1
    25    14    15   ar
    26    14    32    1
    27    15    16    1
    28    15    19   ar
    29    16    17    2
    30    16    18    1
    31    19    11   ar
    32    19    33    1
    33    20    21   ar
    34    20    34    1
    35    21     2   ar
    36    21    35    1
    37    18    36    1
@<TRIPOS>MOLECULE
*****
 36 37 0 0 0
SMALL
GASTEIGER

@<TRIPOS>ATOM
      1 C           0.3340    6.4278   -0.2808 C.3     1  UNL11      -0.0397
      2 C           0.5536    4.9656   -0.3386 C.ar    1  UNL11      -0.0504
      3 C           1.0981    4.2637    0.7274 C.ar    1  UNL11      -0.0585
      4 C           1.2866    2.9030    0.6392 C.ar    1  UNL11      -0.0561
      5 C           0.9549    2.1792   -0.4838 C.ar    1  UNL11      -0.0196
      6 C           1.1872    0.7095   -0.5135 C.3     1  UNL11       0.0983
      7 O           0.4528    0.1202    0.4853 O.3     1  UNL11      -0.2749
      8 N          -0.8545    0.3661    0.2769 N.am    1  UNL11      -0.1902
      9 C          -1.5016    1.4980    0.8176 C.2     1  UNL11       0.2668
     10 O          -0.8671    2.3165    1.5162 O.2     1  UNL11      -0.2681
     11 C          -2.9143    1.6989    0.5493 C.ar    1  UNL11       0.0408
     12 C          -3.6253    2.8004    1.0350 C.ar    1  UNL11      -0.0494
     13 C          -4.9525    2.9106    0.7487 C.ar    1  UNL11      -0.0589
     14 C          -5.5686    1.9323   -0.0141 C.ar    1  UNL11      -0.0316
     15 C          -4.8961    0.8373   -0.5052 C.ar    1  UNL11       0.1223
     16 N          -5.5725   -0.1540   -1.2874 N.4     1  UNL11       0.0060
     17 O          -6.7692   -0.3494   -1.0785 O.2     1  UNL11      -0.1300
     18 O          -4.9350   -0.8795   -2.2491 O.2     1  UNL11      -0.3961
     19 C          -3.5523    0.7406   -0.2070 C.ar    1  UNL11      -0.0195
     20 C           0.4147    2.8834   -1.5393 C.ar    1  UNL11      -0.0561
     21 C           0.2172    4.2533   -1.4691 C.ar    1  UNL11      -0.0585
     22 H           0.5259    6.8149    0.7402 H       1  UNL11       0.0278
     23 H          -0.7291    6.6925   -0.5186 H       1  UNL11       0.0278
     24 H           1.0338    6.8954   -0.9967 H       1  UNL11       0.0278
     25 H           1.3584    4.8461    1.6168 H       1  UNL11       0.0620
     26 H           1.7107    2.3516    1.4644 H       1  UNL11       0.0621
     27 H           0.8094    0.2682   -1.4811 H       1  UNL11       0.0634
     28 H           2.2621    0.4923   -0.5056 H       1  UNL11       0.0634
     29 H          -1.3996   -0.3247   -0.3171 H       1  UNL11       0.1828
     30 H          -3.0871    3.5358    1.6291 H       1  UNL11       0.0625
     31 H          -5.5295    3.7639    1.1151 H       1  UNL11       0.0618
     32 H          -6.6179    2.0213   -0.2378 H       1  UNL11       0.0640
     33 H          -3.0050   -0.1114   -0.5776 H       1  UNL11       0.0648
     34 H           0.1433    2.3362   -2.4311 H       1  UNL11       0.0621
     35 H          -0.2078    4.7960   -2.3059 H       1  UNL11       0.0620
     36 H          -4.0238   -0.7381   -2.4157 H       1  UNL11       0.3292
@<TRIPOS>BOND
     1     1     2    1
     2     1    22    1
     3     1    23    1
     4     1    24    1
     5     2     3   ar
     6     3     4   ar
     7     3    25    1
     8     4     5   ar
     9     4    26    1
    10     5     6    1
    11     5    20   ar
    12     6     7    1
    13     6    27    1
    14     6    28    1
    15     7     8    1
    16     8     9   am
    17     8    29    1
    18     9    10    2
    19     9    11    1
    20    11    12   ar
    21    12    13   ar
    22    12    30    1
    23    13    14   ar
    24    13    31    1
    25    14    15   ar
    26    14    32    1
    27    15    16    1
    28    15    19   ar
    29    16    17    2
    30    16    18    1
    31    19    11   ar
    32    19    33    1
    33    20    21   ar
    34    20    34    1
    35    21     2   ar
    36    21    35    1
    37    18    36    1
@<TRIPOS>MOLECULE
*****
 36 37 0 0 0
SMALL
GASTEIGER

@<TRIPOS>ATOM
      1 C           6.7734   -0.4260    0.4791 C.3     1  UNL11      -0.0397
      2 C           5.3444   -0.1364    0.2273 C.ar    1  UNL11      -0.0504
      3 C           4.4238   -0.0366    1.2608 C.ar    1  UNL11      -0.0585
      4 C           3.1021    0.2359    0.9895 C.ar    1  UNL11      -0.0561
      5 C           2.6298    0.4196   -0.2904 C.ar    1  UNL11      -0.0196
      6 C           1.1872    0.7095   -0.5135 C.3     1  UNL11       0.0983
      7 O           0.4528    0.1202    0.4853 O.3     1  UNL11      -0.2749
      8 N          -0.8545    0.3661    0.2769 N.am    1  UNL11      -0.1902
      9 C          -1.5016    1.4980    0.8176 C.2     1  UNL11       0.2668
     10 O          -2.7197    1.6879    0.6149 O.2     1  UNL11      -0.2681
     11 C          -0.7328    2.4376    1.6139 C.ar    1  UNL11       0.0408
     12 C           0.3770    2.0527    2.3721 C.ar    1  UNL11      -0.0494
     13 C           1.0386    2.9931    3.1024 C.ar    1  UNL11      -0.0589
     14 C           0.5995    4.3066    3.0798 C.ar    1  UNL11      -0.0316
     15 C          -0.4889    4.7154    2.3445 C.ar    1  UNL11       0.1223
     16 N          -0.9123    6.0839    2.3520 N.4     1  UNL11       0.0060
     17 O          -0.2791    6.8897    3.0331 O.2     1  UNL11      -0.1300
     18 O          -1.9856    6.5159    1.6317 O.2     1  UNL11      -0.3961
     19 C          -1.1479    3.7509    1.6098 C.ar    1  UNL11      -0.0195
     20 C           3.5502    0.3185   -1.3124 C.ar    1  UNL11      -0.0561
     21 C           4.8849    0.0450   -1.0590 C.ar    1  UNL11      -0.0585
     22 H           6.9947   -0.4030    1.5652 H       1  UNL11       0.0278
     23 H           7.4372    0.3465    0.0106 H       1  UNL11       0.0278
     24 H           6.9825   -1.4330    0.0752 H       1  UNL11       0.0278
     25 H           4.8072   -0.1829    2.2754 H       1  UNL11       0.0620
     26 H           2.3810    0.3137    1.7889 H       1  UNL11       0.0621
     27 H           0.9890    1.8178   -0.4348 H       1  UNL11       0.0634
     28 H           0.8979    0.4437   -1.5373 H       1  UNL11       0.0634
     29 H          -1.3996   -0.3247   -0.3171 H       1  UNL11       0.1828
     30 H           0.6740    1.0063    2.3505 H       1  UNL11       0.0625
     31 H           1.9106    2.7173    3.7013 H       1  UNL11       0.0618
     32 H           1.1235    5.0475    3.6589 H       1  UNL11       0.0640
     33 H          -2.0067    4.0470    1.0288 H       1  UNL11       0.0648
     34 H           3.2037    0.4619   -2.3261 H       1  UNL11       0.0621
     35 H           5.5991   -0.0326   -1.8711 H       1  UNL11       0.0620
     36 H          -2.4743    5.9100    1.1100 H       1  UNL11       0.3292
@<TRIPOS>BOND
     1     1     2    1
     2     1    22    1
     3     1    23    1
     4     1    24    1
     5     2     3   ar
     6     3     4   ar
     7     3    25    1
     8     4     5   ar
     9     4    26    1
    10     5     6    1
    11     5    20   ar
    12     6     7    1
    13     6    27    1
    14     6    28    1
    15     7     8    1
    16     8     9   am
    17     8    29    1
    18     9    10    2
    19     9    11    1
    20    11    12   ar
    21    12    13   ar
    22    12    30    1
    23    13    14   ar
    24    13    31    1
    25    14    15   ar
    26    14    32    1
    27    15    16    1
    28    15    19   ar
    29    16    17    2
    30    16    18    1
    31    19    11   ar
    32    19    33    1
    33    20    21   ar
    34    20    34    1
    35    21     2   ar
    36    21    35    1
    37    18    36    1
@<TRIPOS>MOLECULE
*****
 36 37 0 0 0
SMALL
GASTEIGER

@<TRIPOS>ATOM
      1 C           0.1683    6.4029   -0.3485 C.3     1  UNL11      -0.0397
      2 C           0.4271    4.9466   -0.3893 C.ar    1  UNL11      -0.0504
      3 C          -0.5240    4.0216    0.0171 C.ar    1  UNL11      -0.0585
      4 C          -0.2493    2.6739   -0.0363 C.ar    1  UNL11      -0.0561
      5 C           0.9549    2.1792   -0.4838 C.ar    1  UNL11      -0.0196
      6 C           1.1872    0.7095   -0.5135 C.3     1  UNL11       0.0983
      7 O           0.4528    0.1202    0.4853 O.3     1  UNL11      -0.2749
      8 N          -0.8545    0.3661    0.2769 N.am    1  UNL11      -0.1902
      9 C          -1.8624   -0.5354    0.6815 C.2     1  UNL11       0.2668
     10 O          -3.0653   -0.2811    0.4600 O.2     1  UNL11      -0.2681
     11 C          -1.4820   -1.7629    1.3570 C.ar    1  UNL11       0.0408
     12 C          -0.2626   -2.4059    1.1236 C.ar    1  UNL11      -0.0494
     13 C           0.0150   -3.5613    1.7894 C.ar    1  UNL11      -0.0589
     14 C          -0.9133   -4.0745    2.6801 C.ar    1  UNL11      -0.0316
     15 C          -2.1211   -3.4654    2.9303 C.ar    1  UNL11       0.1223
     16 N          -3.0550   -4.0319    3.8570 N.4     1  UNL11       0.0060
     17 O          -2.7528   -5.0796    4.4272 O.2     1  UNL11      -0.1300
     18 O          -4.2573   -3.4485    4.1245 O.2     1  UNL11      -0.3961
     19 C          -2.3870   -2.2955    2.2484 C.ar    1  UNL11      -0.0195
     20 C           1.8955    3.1043   -0.8855 C.ar    1  UNL11      -0.0561
     21 C           1.6372    4.4650   -0.8392 C.ar    1  UNL11      -0.0585
     22 H          -0.8919    6.6077   -0.0973 H       1  UNL11       0.0278
     23 H           0.3485    6.8797   -1.3470 H       1  UNL11       0.0278
     24 H           0.8271    6.8339    0.4268 H       1  UNL11       0.0278
     25 H          -1.4791    4.4227    0.3706 H       1  UNL11       0.0620
     26 H          -0.9845    1.9495    0.2794 H       1  UNL11       0.0621
     27 H           0.8094    0.2682   -1.4811 H       1  UNL11       0.0634
     28 H           2.2621    0.4923   -0.5056 H       1  UNL11       0.0634
     29 H          -1.1163    1.2735   -0.2081 H       1  UNL11       0.1828
     30 H           0.4260   -1.9551    0.4121 H       1  UNL11       0.0625
     31 H           0.9627   -4.0813    1.6256 H       1  UNL11       0.0618
     32 H          -0.6917   -4.9885    3.2040 H       1  UNL11       0.0640
     33 H          -3.3295   -1.8023    2.4250 H       1  UNL11       0.0648
     34 H           2.8478    2.7398   -1.2438 H       1  UNL11       0.0621
     35 H           2.3850    5.1827   -1.1573 H       1  UNL11       0.0620
     36 H          -4.4967   -2.6506    3.6955 H       1  UNL11       0.3292
@<TRIPOS>BOND
     1     1     2    1
     2     1    22    1
     3     1    23    1
     4     1    24    1
     5     2     3   ar
     6     3     4   ar
     7     3    25    1
     8     4     5   ar
     9     4    26    1
    10     5     6    1
    11     5    20   ar
    12     6     7    1
    13     6    27    1
    14     6    28    1
    15     7     8    1
    16     8     9   am
    17     8    29    1
    18     9    10    2
    19     9    11    1
    20    11    12   ar
    21    12    13   ar
    22    12    30    1
    23    13    14   ar
    24    13    31    1
    25    14    15   ar
    26    14    32    1
    27    15    16    1
    28    15    19   ar
    29    16    17    2
    30    16    18    1
    31    19    11   ar
    32    19    33    1
    33    20    21   ar
    34    20    34    1
    35    21     2   ar
    36    21    35    1
    37    18    36    1
@<TRIPOS>MOLECULE
*****
 36 37 0 0 0
SMALL
GASTEIGER

@<TRIPOS>ATOM
      1 C          -0.5215   -1.3311   -5.6513 C.3     1  UNL11      -0.0397
      2 C          -0.0844   -0.8072   -4.3383 C.ar    1  UNL11      -0.0504
      3 C          -0.1709    0.5410   -4.0216 C.ar    1  UNL11      -0.0585
      4 C           0.2435    0.9929   -2.7893 C.ar    1  UNL11      -0.0561
      5 C           0.7554    0.1543   -1.8251 C.ar    1  UNL11      -0.0196
      6 C           1.1872    0.7095   -0.5135 C.3     1  UNL11       0.0983
      7 O           0.4528    0.1202    0.4853 O.3     1  UNL11      -0.2749
      8 N          -0.8545    0.3661    0.2769 N.am    1  UNL11      -0.1902
      9 C          -1.3048    1.5352   -0.3733 C.2     1  UNL11       0.2668
     10 O          -2.5266    1.7373   -0.5380 O.2     1  UNL11      -0.2681
     11 C          -0.3288    2.5003   -0.8465 C.ar    1  UNL11       0.0408
     12 C          -0.5971    3.8704   -0.9203 C.ar    1  UNL11      -0.0494
     13 C           0.3685    4.7103   -1.3870 C.ar    1  UNL11      -0.0589
     14 C           1.5917    4.1915   -1.7784 C.ar    1  UNL11      -0.0316
     15 C           1.8849    2.8488   -1.7181 C.ar    1  UNL11       0.1223
     16 N           3.1620    2.3532   -2.1368 N.4     1  UNL11       0.0060
     17 O           3.9951    3.1573   -2.5534 O.2     1  UNL11      -0.1300
     18 O           3.4791    1.0287   -2.0860 O.2     1  UNL11      -0.3961
     19 C           0.8965    2.0115   -1.2426 C.ar    1  UNL11      -0.0195
     20 C           0.8389   -1.1841   -2.1469 C.ar    1  UNL11      -0.0561
     21 C           0.4265   -1.6578   -3.3822 C.ar    1  UNL11      -0.0585
     22 H          -1.0315   -0.5424   -6.2402 H       1  UNL11       0.0278
     23 H          -1.2655   -2.1615   -5.5345 H       1  UNL11       0.0278
     24 H           0.3818   -1.6741   -6.1873 H       1  UNL11       0.0278
     25 H          -0.5799    1.2011   -4.7931 H       1  UNL11       0.0620
     26 H           0.1798    2.0405   -2.5374 H       1  UNL11       0.0621
     27 H           2.2647    0.4450   -0.3067 H       1  UNL11       0.0634
     28 H           1.1657    1.8057   -0.5368 H       1  UNL11       0.0634
     29 H          -1.5545   -0.3551    0.6189 H       1  UNL11       0.1828
     30 H          -1.5765    4.2185   -0.5990 H       1  UNL11       0.0625
     31 H           0.1835    5.7858   -1.4519 H       1  UNL11       0.0618
     32 H           2.3526    4.8574   -2.1481 H       1  UNL11       0.0640
     33 H           1.1019    0.9542   -1.1902 H       1  UNL11       0.0648
     34 H           1.2348   -1.8627   -1.4047 H       1  UNL11       0.0621
     35 H           0.4977   -2.7124   -3.6238 H       1  UNL11       0.0620
     36 H           2.8517    0.4085   -1.7703 H       1  UNL11       0.3292
@<TRIPOS>BOND
     1     1     2    1
     2     1    22    1
     3     1    23    1
     4     1    24    1
     5     2     3   ar
     6     3     4   ar
     7     3    25    1
     8     4     5   ar
     9     4    26    1
    10     5     6    1
    11     5    20   ar
    12     6     7    1
    13     6    27    1
    14     6    28    1
    15     7     8    1
    16     8     9   am
    17     8    29    1
    18     9    10    2
    19     9    11    1
    20    11    12   ar
    21    12    13   ar
    22    12    30    1
    23    13    14   ar
    24    13    31    1
    25    14    15   ar
    26    14    32    1
    27    15    16    1
    28    15    19   ar
    29    16    17    2
    30    16    18    1
    31    19    11   ar
    32    19    33    1
    33    20    21   ar
    34    20    34    1
    35    21     2   ar
    36    21    35    1
    37    18    36    1
