@<TRIPOS>MOLECULE
*****
 51 54 0 0 0
SMALL
GASTEIGER

@<TRIPOS>ATOM
      1 C           0.5574    1.1211   -4.8537 C.3     1  UNL11       0.0368
      2 O           1.4515    0.1058   -5.1565 O.3     1  UNL11      -0.3797
      3 C           2.3512   -0.1524   -4.1273 C.3     1  UNL11       0.0612
      4 C           3.1751    1.0468   -3.7693 C.3     1  UNL11      -0.0107
      5 C           3.3705    1.0708   -2.2704 C.3     1  UNL11       0.0173
      6 N           2.0726    1.2399   -1.6622 N.am    1  UNL11      -0.2973
      7 C           1.8833    2.2338   -0.6823 C.2     1  UNL11       0.2494
      8 O           2.8221    2.9945   -0.3105 O.2     1  UNL11      -0.2699
      9 C           0.5584    2.3809   -0.0848 C.ar    1  UNL11       0.0723
     10 C          -0.5728    2.0657   -0.8006 C.ar    1  UNL11      -0.0433
     11 C          -1.8581    2.1756   -0.2878 C.ar    1  UNL11      -0.0405
     12 C          -3.0289    1.8279   -1.1297 C.3     1  UNL11       0.0211
     13 C          -3.0356    0.4351   -1.5826 C.2     1  UNL11       0.1192
     14 N          -1.9765    0.0187   -2.3271 N.2     1  UNL11      -0.0073
     15 N          -1.7999   -1.1977   -2.7616 N.am    1  UNL11      -0.0356
     16 C          -2.6938   -2.1645   -2.4901 C.2     1  UNL11       0.4383
     17 O          -2.5794   -3.3423   -2.8757 O.2     1  UNL11      -0.2116
     18 C          -3.8139   -1.8148   -1.7291 C.ar    1  UNL11       0.1004
     19 C          -4.7795   -2.7444   -1.4217 C.ar    1  UNL11      -0.0441
     20 C          -5.8719   -2.3726   -0.6889 C.ar    1  UNL11      -0.0608
     21 C          -6.0459   -1.0801   -0.2390 C.ar    1  UNL11      -0.0611
     22 C          -5.0726   -0.1686   -0.5550 C.ar    1  UNL11      -0.0518
     23 C          -3.9683   -0.5159   -1.2862 C.ar    1  UNL11       0.0192
     24 C          -1.9821    2.6221    0.9949 C.ar    1  UNL11      -0.0555
     25 C          -0.8663    2.9605    1.7798 C.ar    1  UNL11      -0.0254
     26 C           0.3846    2.8232    1.1959 C.ar    1  UNL11       0.1355
     27 F           1.4956    3.1339    1.9035 F       1  UNL11      -0.2047
     28 C           1.0241    0.3506   -2.1134 C.3     1  UNL11       0.0173
     29 C           1.7097   -0.7508   -2.9240 C.3     1  UNL11      -0.0107
     30 H          -0.0682    0.8966   -3.9500 H       1  UNL11       0.0524
     31 H          -0.1714    1.1573   -5.7029 H       1  UNL11       0.0524
     32 H           1.0253    2.1100   -4.7787 H       1  UNL11       0.0524
     33 H           3.0660   -0.9257   -4.5442 H       1  UNL11       0.0597
     34 H           2.5996    1.9875   -4.0117 H       1  UNL11       0.0305
     35 H           4.1471    1.0591   -4.3088 H       1  UNL11       0.0305
     36 H           3.8530    0.1207   -1.9265 H       1  UNL11       0.0465
     37 H           4.0241    1.9489   -1.9927 H       1  UNL11       0.0465
     38 H          -0.4568    1.7190   -1.8021 H       1  UNL11       0.0629
     39 H          -3.9861    2.1381   -0.6538 H       1  UNL11       0.0379
     40 H          -2.9623    2.4845   -2.0406 H       1  UNL11       0.0379
     41 H          -0.9504   -1.4692   -3.3417 H       1  UNL11       0.4829
     42 H          -4.6623   -3.7740   -1.7676 H       1  UNL11       0.0627
     43 H          -6.6550   -3.0814   -0.4262 H       1  UNL11       0.0618
     44 H          -6.9321   -0.7942    0.3506 H       1  UNL11       0.0618
     45 H          -5.1926    0.8619   -0.2307 H       1  UNL11       0.0624
     46 H          -2.9332    2.7616    1.5023 H       1  UNL11       0.0621
     47 H          -0.9818    3.3112    2.7946 H       1  UNL11       0.0646
     48 H           0.6144   -0.1644   -1.2032 H       1  UNL11       0.0465
     49 H           0.2295    0.8432   -2.6824 H       1  UNL11       0.0465
     50 H           2.4308   -1.2809   -2.2774 H       1  UNL11       0.0305
     51 H           0.8928   -1.4322   -3.2626 H       1  UNL11       0.0305
@<TRIPOS>BOND
     1     1     2    1
     2     1    30    1
     3     1    31    1
     4     1    32    1
     5     2     3    1
     6     3     4    1
     7     3    33    1
     8     4     5    1
     9     4    34    1
    10     4    35    1
    11     5     6    1
    12     5    36    1
    13     5    37    1
    14     6     7   am
    15     6    28    1
    16     7     8    2
    17     7     9    1
    18     9    10   ar
    19    10    11   ar
    20    10    38    1
    21    11    12    1
    22    11    24   ar
    23    12    13    1
    24    12    39    1
    25    12    40    1
    26    13    14    2
    27    14    15    1
    28    15    16   am
    29    15    41    1
    30    16    17    2
    31    16    18    1
    32    18    19   ar
    33    19    20   ar
    34    19    42    1
    35    20    21   ar
    36    20    43    1
    37    21    22   ar
    38    21    44    1
    39    22    23   ar
    40    22    45    1
    41    23    13    1
    42    23    18   ar
    43    24    25   ar
    44    24    46    1
    45    25    26   ar
    46    25    47    1
    47    26    27    1
    48    26     9   ar
    49    28    29    1
    50    28    48    1
    51    28    49    1
    52    29     3    1
    53    29    50    1
    54    29    51    1
@<TRIPOS>MOLECULE
*****
 51 54 0 0 0
SMALL
GASTEIGER

@<TRIPOS>ATOM
      1 C           3.4142   -1.0489    2.0153 C.3     1  UNL11       0.0368
      2 O           4.7111   -0.6190    2.2499 O.3     1  UNL11      -0.3797
      3 C           5.0153    0.5736    1.6013 C.3     1  UNL11       0.0612
      4 C           4.8628    0.4745    0.1141 C.3     1  UNL11      -0.0107
      5 C           4.2911    1.7752   -0.4024 C.3     1  UNL11       0.0173
      6 N           2.9703    1.9266    0.1592 N.am    1  UNL11      -0.2973
      7 C           1.8833    2.2338   -0.6823 C.2     1  UNL11       0.2494
      8 O           2.0241    2.3840   -1.9297 O.2     1  UNL11      -0.2699
      9 C           0.5584    2.3809   -0.0848 C.ar    1  UNL11       0.0723
     10 C          -0.5728    2.0657   -0.8006 C.ar    1  UNL11      -0.0433
     11 C          -1.8581    2.1756   -0.2878 C.ar    1  UNL11      -0.0405
     12 C          -3.0289    1.8279   -1.1297 C.3     1  UNL11       0.0211
     13 C          -2.7482    0.7975   -2.1319 C.2     1  UNL11       0.1192
     14 N          -3.7696    0.4348   -2.9532 N.2     1  UNL11      -0.0073
     15 N          -3.6752   -0.4232   -3.9302 N.am    1  UNL11      -0.0356
     16 C          -2.5088   -1.0339   -4.2024 C.2     1  UNL11       0.4383
     17 O          -2.3568   -1.8599   -5.1210 O.2     1  UNL11      -0.2116
     18 C          -1.4087   -0.7149   -3.3999 C.ar    1  UNL11       0.1004
     19 C          -0.1854   -1.3081   -3.6068 C.ar    1  UNL11      -0.0441
     20 C           0.8698   -0.9893   -2.7984 C.ar    1  UNL11      -0.0608
     21 C           0.7528   -0.0814   -1.7663 C.ar    1  UNL11      -0.0611
     22 C          -0.4738    0.4993   -1.5765 C.ar    1  UNL11      -0.0518
     23 C          -1.5460    0.1984   -2.3731 C.ar    1  UNL11       0.0192
     24 C          -1.9821    2.6221    0.9949 C.ar    1  UNL11      -0.0555
     25 C          -0.8663    2.9605    1.7798 C.ar    1  UNL11      -0.0254
     26 C           0.3846    2.8232    1.1959 C.ar    1  UNL11       0.1355
     27 F           1.4956    3.1339    1.9035 F       1  UNL11      -0.2047
     28 C           2.8493    1.7476    1.5899 C.3     1  UNL11       0.0173
     29 C           4.2739    1.7437    2.1476 C.3     1  UNL11      -0.0107
     30 H           2.6414   -0.3104    2.3553 H       1  UNL11       0.0524
     31 H           3.2601   -1.9442    2.6697 H       1  UNL11       0.0524
     32 H           3.2367   -1.3631    0.9798 H       1  UNL11       0.0524
     33 H           6.1153    0.7505    1.8047 H       1  UNL11       0.0597
     34 H           4.0922   -0.3120   -0.1359 H       1  UNL11       0.0305
     35 H           5.8233    0.2226   -0.3861 H       1  UNL11       0.0305
     36 H           4.9505    2.6320   -0.1111 H       1  UNL11       0.0465
     37 H           4.2092    1.7267   -1.5277 H       1  UNL11       0.0465
     38 H          -0.4568    1.7190   -1.8021 H       1  UNL11       0.0629
     39 H          -3.9288    1.6057   -0.5135 H       1  UNL11       0.0379
     40 H          -3.3094    2.7704   -1.6760 H       1  UNL11       0.0379
     41 H          -4.5088   -0.6705   -4.5432 H       1  UNL11       0.4829
     42 H          -0.0698   -2.0301   -4.4185 H       1  UNL11       0.0627
     43 H           1.8522   -1.4381   -2.9334 H       1  UNL11       0.0618
     44 H           1.6121    0.1657   -1.1218 H       1  UNL11       0.0618
     45 H          -0.6009    1.2037   -0.7585 H       1  UNL11       0.0624
     46 H          -2.9332    2.7616    1.5023 H       1  UNL11       0.0621
     47 H          -0.9818    3.3112    2.7946 H       1  UNL11       0.0646
     48 H           2.3746    2.6795    1.9997 H       1  UNL11       0.0465
     49 H           2.2912    0.8541    1.8866 H       1  UNL11       0.0465
     50 H           4.7600    2.7052    1.9060 H       1  UNL11       0.0305
     51 H           4.1680    1.6098    3.2509 H       1  UNL11       0.0305
@<TRIPOS>BOND
     1     1     2    1
     2     1    30    1
     3     1    31    1
     4     1    32    1
     5     2     3    1
     6     3     4    1
     7     3    33    1
     8     4     5    1
     9     4    34    1
    10     4    35    1
    11     5     6    1
    12     5    36    1
    13     5    37    1
    14     6     7   am
    15     6    28    1
    16     7     8    2
    17     7     9    1
    18     9    10   ar
    19    10    11   ar
    20    10    38    1
    21    11    12    1
    22    11    24   ar
    23    12    13    1
    24    12    39    1
    25    12    40    1
    26    13    14    2
    27    14    15    1
    28    15    16   am
    29    15    41    1
    30    16    17    2
    31    16    18    1
    32    18    19   ar
    33    19    20   ar
    34    19    42    1
    35    20    21   ar
    36    20    43    1
    37    21    22   ar
    38    21    44    1
    39    22    23   ar
    40    22    45    1
    41    23    13    1
    42    23    18   ar
    43    24    25   ar
    44    24    46    1
    45    25    26   ar
    46    25    47    1
    47    26    27    1
    48    26     9   ar
    49    28    29    1
    50    28    48    1
    51    28    49    1
    52    29     3    1
    53    29    50    1
    54    29    51    1
@<TRIPOS>MOLECULE
*****
 51 54 0 0 0
SMALL
GASTEIGER

@<TRIPOS>ATOM
      1 C           5.3638    2.3435    4.0947 C.3     1  UNL11       0.0368
      2 O           5.2604    1.6202    2.9166 O.3     1  UNL11      -0.3797
      3 C           5.3011    2.4218    1.7802 C.3     1  UNL11       0.0612
      4 C           5.1716    1.6312    0.5140 C.3     1  UNL11      -0.0107
      5 C           4.3338    2.4201   -0.4665 C.3     1  UNL11       0.0173
      6 N           3.0119    2.5554    0.0967 N.am    1  UNL11      -0.2973
      7 C           1.8833    2.2338   -0.6823 C.2     1  UNL11       0.2494
      8 O           1.9871    1.8250   -1.8741 O.2     1  UNL11      -0.2699
      9 C           0.5584    2.3809   -0.0848 C.ar    1  UNL11       0.0723
     10 C          -0.5728    2.0657   -0.8006 C.ar    1  UNL11      -0.0433
     11 C          -1.8581    2.1756   -0.2878 C.ar    1  UNL11      -0.0405
     12 C          -3.0289    1.8279   -1.1297 C.3     1  UNL11       0.0211
     13 C          -2.8121    2.0513   -2.5608 C.2     1  UNL11       0.1192
     14 N          -2.5060    3.3170   -2.9529 N.2     1  UNL11      -0.0073
     15 N          -2.2302    3.6751   -4.1756 N.am    1  UNL11      -0.0356
     16 C          -2.2302    2.7760   -5.1751 C.2     1  UNL11       0.4383
     17 O          -1.9743    3.0570   -6.3602 O.2     1  UNL11      -0.2116
     18 C          -2.5374    1.4502   -4.8527 C.ar    1  UNL11       0.1004
     19 C          -2.5716    0.4753   -5.8219 C.ar    1  UNL11      -0.0441
     20 C          -2.8892   -0.8100   -5.4820 C.ar    1  UNL11      -0.0608
     21 C          -3.1819   -1.1726   -4.1836 C.ar    1  UNL11      -0.0611
     22 C          -3.1421   -0.1872   -3.2320 C.ar    1  UNL11      -0.0518
     23 C          -2.8252    1.1073   -3.5462 C.ar    1  UNL11       0.0192
     24 C          -1.9821    2.6221    0.9949 C.ar    1  UNL11      -0.0555
     25 C          -0.8663    2.9605    1.7798 C.ar    1  UNL11      -0.0254
     26 C           0.3846    2.8232    1.1959 C.ar    1  UNL11       0.1355
     27 F           1.4956    3.1339    1.9035 F       1  UNL11      -0.2047
     28 C           2.9339    3.0262    1.4627 C.3     1  UNL11       0.0173
     29 C           4.3269    3.5472    1.8212 C.3     1  UNL11      -0.0107
     30 H           6.3192    2.9270    4.1663 H       1  UNL11       0.0524
     31 H           5.4288    1.5882    4.9187 H       1  UNL11       0.0524
     32 H           4.4931    2.9784    4.2977 H       1  UNL11       0.0524
     33 H           6.3380    2.8775    1.7747 H       1  UNL11       0.0597
     34 H           4.5871    0.6865    0.7156 H       1  UNL11       0.0305
     35 H           6.1631    1.3677    0.0855 H       1  UNL11       0.0305
     36 H           4.7946    3.4236   -0.6516 H       1  UNL11       0.0465
     37 H           4.2628    1.8513   -1.4396 H       1  UNL11       0.0465
     38 H          -0.4568    1.7190   -1.8021 H       1  UNL11       0.0629
     39 H          -3.4152    0.8098   -0.8991 H       1  UNL11       0.0379
     40 H          -3.8621    2.5074   -0.7988 H       1  UNL11       0.0379
     41 H          -1.9969    4.6823   -4.4269 H       1  UNL11       0.4829
     42 H          -2.3431    0.7397   -6.8570 H       1  UNL11       0.0627
     43 H          -2.9250   -1.6073   -6.2222 H       1  UNL11       0.0618
     44 H          -3.4371   -2.2129   -3.9239 H       1  UNL11       0.0618
     45 H          -3.3874   -0.4394   -2.2036 H       1  UNL11       0.0624
     46 H          -2.9332    2.7616    1.5023 H       1  UNL11       0.0621
     47 H          -0.9818    3.3112    2.7946 H       1  UNL11       0.0646
     48 H           2.2710    3.9329    1.4615 H       1  UNL11       0.0465
     49 H           2.5806    2.2769    2.1780 H       1  UNL11       0.0465
     50 H           4.5954    4.3669    1.1320 H       1  UNL11       0.0305
     51 H           4.2535    3.9113    2.8739 H       1  UNL11       0.0305
@<TRIPOS>BOND
     1     1     2    1
     2     1    30    1
     3     1    31    1
     4     1    32    1
     5     2     3    1
     6     3     4    1
     7     3    33    1
     8     4     5    1
     9     4    34    1
    10     4    35    1
    11     5     6    1
    12     5    36    1
    13     5    37    1
    14     6     7   am
    15     6    28    1
    16     7     8    2
    17     7     9    1
    18     9    10   ar
    19    10    11   ar
    20    10    38    1
    21    11    12    1
    22    11    24   ar
    23    12    13    1
    24    12    39    1
    25    12    40    1
    26    13    14    2
    27    14    15    1
    28    15    16   am
    29    15    41    1
    30    16    17    2
    31    16    18    1
    32    18    19   ar
    33    19    20   ar
    34    19    42    1
    35    20    21   ar
    36    20    43    1
    37    21    22   ar
    38    21    44    1
    39    22    23   ar
    40    22    45    1
    41    23    13    1
    42    23    18   ar
    43    24    25   ar
    44    24    46    1
    45    25    26   ar
    46    25    47    1
    47    26    27    1
    48    26     9   ar
    49    28    29    1
    50    28    48    1
    51    28    49    1
    52    29     3    1
    53    29    50    1
    54    29    51    1
@<TRIPOS>MOLECULE
*****
 51 54 0 0 0
SMALL
GASTEIGER

@<TRIPOS>ATOM
      1 C           4.1257   -1.6238   -1.3799 C.3     1  UNL11       0.0368
      2 O           3.5193   -2.0795   -2.5403 O.3     1  UNL11      -0.3797
      3 C           2.5198   -1.2292   -3.0025 C.3     1  UNL11       0.0612
      4 C           1.4242   -1.0313   -1.9997 C.3     1  UNL11      -0.0107
      5 C           0.9638    0.4073   -2.0625 C.3     1  UNL11       0.0173
      6 N           2.0726    1.2399   -1.6622 N.am    1  UNL11      -0.2973
      7 C           1.8833    2.2338   -0.6823 C.2     1  UNL11       0.2494
      8 O           2.8221    2.9945   -0.3105 O.2     1  UNL11      -0.2699
      9 C           0.5584    2.3809   -0.0848 C.ar    1  UNL11       0.0723
     10 C          -0.5728    2.0657   -0.8006 C.ar    1  UNL11      -0.0433
     11 C          -1.8581    2.1756   -0.2878 C.ar    1  UNL11      -0.0405
     12 C          -3.0289    1.8279   -1.1297 C.3     1  UNL11       0.0211
     13 C          -3.9600    2.9402   -1.3316 C.2     1  UNL11       0.1192
     14 N          -3.7473    3.7407   -2.4102 N.2     1  UNL11      -0.0073
     15 N          -4.5103    4.7366   -2.7646 N.am    1  UNL11      -0.0356
     16 C          -5.6075    5.0523   -2.0548 C.2     1  UNL11       0.4383
     17 O          -6.3740    5.9894   -2.3436 O.2     1  UNL11      -0.2116
     18 C          -5.8948    4.2755   -0.9278 C.ar    1  UNL11       0.1004
     19 C          -6.9913    4.5447   -0.1428 C.ar    1  UNL11      -0.0441
     20 C          -7.2408    3.7791    0.9617 C.ar    1  UNL11      -0.0608
     21 C          -6.4216    2.7303    1.3254 C.ar    1  UNL11      -0.0611
     22 C          -5.3345    2.4774    0.5303 C.ar    1  UNL11      -0.0518
     23 C          -5.0634    3.2283   -0.5821 C.ar    1  UNL11       0.0192
     24 C          -1.9821    2.6221    0.9949 C.ar    1  UNL11      -0.0555
     25 C          -0.8663    2.9605    1.7798 C.ar    1  UNL11      -0.0254
     26 C           0.3846    2.8232    1.1959 C.ar    1  UNL11       0.1355
     27 F           1.4956    3.1339    1.9035 F       1  UNL11      -0.2047
     28 C           3.3400    0.9897   -2.3141 C.3     1  UNL11       0.0173
     29 C           3.0422    0.0728   -3.5019 C.3     1  UNL11      -0.0107
     30 H           4.6120   -0.6209   -1.5064 H       1  UNL11       0.0524
     31 H           4.9724   -2.3271   -1.1747 H       1  UNL11       0.0524
     32 H           3.4653   -1.6389   -0.5047 H       1  UNL11       0.0524
     33 H           2.0586   -1.7655   -3.8870 H       1  UNL11       0.0597
     34 H           1.8355   -1.1693   -0.9573 H       1  UNL11       0.0305
     35 H           0.5811   -1.7380   -2.1607 H       1  UNL11       0.0305
     36 H           0.6258    0.6621   -3.0991 H       1  UNL11       0.0465
     37 H           0.1102    0.5584   -1.3386 H       1  UNL11       0.0465
     38 H          -0.4568    1.7190   -1.8021 H       1  UNL11       0.0629
     39 H          -2.7223    1.3356   -2.0797 H       1  UNL11       0.0379
     40 H          -3.5784    1.0165   -0.5775 H       1  UNL11       0.0379
     41 H          -4.2962    5.3315   -3.6202 H       1  UNL11       0.4829
     42 H          -7.6539    5.3706   -0.4119 H       1  UNL11       0.0627
     43 H          -8.0993    3.9624    1.6052 H       1  UNL11       0.0618
     44 H          -6.6346    2.1215    2.2192 H       1  UNL11       0.0618
     45 H          -4.6603    1.6697    0.8033 H       1  UNL11       0.0624
     46 H          -2.9332    2.7616    1.5023 H       1  UNL11       0.0621
     47 H          -0.9818    3.3112    2.7946 H       1  UNL11       0.0646
     48 H           3.6747    1.9611   -2.7679 H       1  UNL11       0.0465
     49 H           4.1096    0.5720   -1.6576 H       1  UNL11       0.0465
     50 H           2.3370    0.5802   -4.1833 H       1  UNL11       0.0305
     51 H           4.0250   -0.1095   -3.9991 H       1  UNL11       0.0305
@<TRIPOS>BOND
     1     1     2    1
     2     1    30    1
     3     1    31    1
     4     1    32    1
     5     2     3    1
     6     3     4    1
     7     3    33    1
     8     4     5    1
     9     4    34    1
    10     4    35    1
    11     5     6    1
    12     5    36    1
    13     5    37    1
    14     6     7   am
    15     6    28    1
    16     7     8    2
    17     7     9    1
    18     9    10   ar
    19    10    11   ar
    20    10    38    1
    21    11    12    1
    22    11    24   ar
    23    12    13    1
    24    12    39    1
    25    12    40    1
    26    13    14    2
    27    14    15    1
    28    15    16   am
    29    15    41    1
    30    16    17    2
    31    16    18    1
    32    18    19   ar
    33    19    20   ar
    34    19    42    1
    35    20    21   ar
    36    20    43    1
    37    21    22   ar
    38    21    44    1
    39    22    23   ar
    40    22    45    1
    41    23    13    1
    42    23    18   ar
    43    24    25   ar
    44    24    46    1
    45    25    26   ar
    46    25    47    1
    47    26    27    1
    48    26     9   ar
    49    28    29    1
    50    28    48    1
    51    28    49    1
    52    29     3    1
    53    29    50    1
    54    29    51    1
@<TRIPOS>MOLECULE
*****
 51 54 0 0 0
SMALL
GASTEIGER

@<TRIPOS>ATOM
      1 C           5.3638    2.3435    4.0947 C.3     1  UNL11       0.0368
      2 O           5.2604    1.6202    2.9166 O.3     1  UNL11      -0.3797
      3 C           5.3011    2.4218    1.7802 C.3     1  UNL11       0.0612
      4 C           5.1716    1.6312    0.5140 C.3     1  UNL11      -0.0107
      5 C           4.3338    2.4201   -0.4665 C.3     1  UNL11       0.0173
      6 N           3.0119    2.5554    0.0967 N.am    1  UNL11      -0.2973
      7 C           1.8833    2.2338   -0.6823 C.2     1  UNL11       0.2494
      8 O           1.9871    1.8250   -1.8741 O.2     1  UNL11      -0.2699
      9 C           0.5584    2.3809   -0.0848 C.ar    1  UNL11       0.0723
     10 C          -0.5728    2.0657   -0.8006 C.ar    1  UNL11      -0.0433
     11 C          -1.8581    2.1756   -0.2878 C.ar    1  UNL11      -0.0405
     12 C          -3.0289    1.8279   -1.1297 C.3     1  UNL11       0.0211
     13 C          -2.6727    1.3844   -2.4793 C.2     1  UNL11       0.1192
     14 N          -3.0570    0.1317   -2.8434 N.2     1  UNL11      -0.0073
     15 N          -2.8693   -0.3956   -4.0208 N.am    1  UNL11      -0.0356
     16 C          -2.2554    0.2956   -4.9970 C.2     1  UNL11       0.4383
     17 O          -2.0490   -0.1531   -6.1394 O.2     1  UNL11      -0.2116
     18 C          -1.8280    1.5937   -4.7001 C.ar    1  UNL11       0.1004
     19 C          -1.1799    2.3587   -5.6414 C.ar    1  UNL11      -0.0441
     20 C          -0.7594    3.6190   -5.3204 C.ar    1  UNL11      -0.0608
     21 C          -0.9628    4.1618   -4.0685 C.ar    1  UNL11      -0.0611
     22 C          -1.6107    3.3843   -3.1445 C.ar    1  UNL11      -0.0518
     23 C          -2.0433    2.1196   -3.4414 C.ar    1  UNL11       0.0192
     24 C          -1.9821    2.6221    0.9949 C.ar    1  UNL11      -0.0555
     25 C          -0.8663    2.9605    1.7798 C.ar    1  UNL11      -0.0254
     26 C           0.3846    2.8232    1.1959 C.ar    1  UNL11       0.1355
     27 F           1.4956    3.1339    1.9035 F       1  UNL11      -0.2047
     28 C           2.9339    3.0262    1.4627 C.3     1  UNL11       0.0173
     29 C           4.3269    3.5472    1.8212 C.3     1  UNL11      -0.0107
     30 H           6.3192    2.9270    4.1663 H       1  UNL11       0.0524
     31 H           5.4288    1.5882    4.9187 H       1  UNL11       0.0524
     32 H           4.4931    2.9784    4.2977 H       1  UNL11       0.0524
     33 H           6.3380    2.8775    1.7747 H       1  UNL11       0.0597
     34 H           4.5871    0.6865    0.7156 H       1  UNL11       0.0305
     35 H           6.1631    1.3677    0.0855 H       1  UNL11       0.0305
     36 H           4.7946    3.4236   -0.6516 H       1  UNL11       0.0465
     37 H           4.2628    1.8513   -1.4396 H       1  UNL11       0.0465
     38 H          -0.4568    1.7190   -1.8021 H       1  UNL11       0.0629
     39 H          -3.7198    1.1289   -0.6072 H       1  UNL11       0.0379
     40 H          -3.6327    2.7720   -1.2271 H       1  UNL11       0.0379
     41 H          -3.1914   -1.3828   -4.2520 H       1  UNL11       0.4829
     42 H          -1.0081    1.9491   -6.6395 H       1  UNL11       0.0627
     43 H          -0.2444    4.2529   -6.0400 H       1  UNL11       0.0618
     44 H          -0.6176    5.1794   -3.8233 H       1  UNL11       0.0618
     45 H          -1.7676    3.7782   -2.1437 H       1  UNL11       0.0624
     46 H          -2.9332    2.7616    1.5023 H       1  UNL11       0.0621
     47 H          -0.9818    3.3112    2.7946 H       1  UNL11       0.0646
     48 H           2.2710    3.9329    1.4615 H       1  UNL11       0.0465
     49 H           2.5806    2.2769    2.1780 H       1  UNL11       0.0465
     50 H           4.5954    4.3669    1.1320 H       1  UNL11       0.0305
     51 H           4.2535    3.9113    2.8739 H       1  UNL11       0.0305
@<TRIPOS>BOND
     1     1     2    1
     2     1    30    1
     3     1    31    1
     4     1    32    1
     5     2     3    1
     6     3     4    1
     7     3    33    1
     8     4     5    1
     9     4    34    1
    10     4    35    1
    11     5     6    1
    12     5    36    1
    13     5    37    1
    14     6     7   am
    15     6    28    1
    16     7     8    2
    17     7     9    1
    18     9    10   ar
    19    10    11   ar
    20    10    38    1
    21    11    12    1
    22    11    24   ar
    23    12    13    1
    24    12    39    1
    25    12    40    1
    26    13    14    2
    27    14    15    1
    28    15    16   am
    29    15    41    1
    30    16    17    2
    31    16    18    1
    32    18    19   ar
    33    19    20   ar
    34    19    42    1
    35    20    21   ar
    36    20    43    1
    37    21    22   ar
    38    21    44    1
    39    22    23   ar
    40    22    45    1
    41    23    13    1
    42    23    18   ar
    43    24    25   ar
    44    24    46    1
    45    25    26   ar
    46    25    47    1
    47    26    27    1
    48    26     9   ar
    49    28    29    1
    50    28    48    1
    51    28    49    1
    52    29     3    1
    53    29    50    1
    54    29    51    1
@<TRIPOS>MOLECULE
*****
 51 54 0 0 0
SMALL
GASTEIGER

@<TRIPOS>ATOM
      1 C           6.2844    0.6866    2.9591 C.3     1  UNL11       0.0368
      2 O           5.2604    1.6202    2.9166 O.3     1  UNL11      -0.3797
      3 C           5.3011    2.4218    1.7802 C.3     1  UNL11       0.0612
      4 C           5.1716    1.6312    0.5140 C.3     1  UNL11      -0.0107
      5 C           4.3338    2.4201   -0.4665 C.3     1  UNL11       0.0173
      6 N           3.0119    2.5554    0.0967 N.am    1  UNL11      -0.2973
      7 C           1.8833    2.2338   -0.6823 C.2     1  UNL11       0.2494
      8 O           1.9871    1.8250   -1.8741 O.2     1  UNL11      -0.2699
      9 C           0.5584    2.3809   -0.0848 C.ar    1  UNL11       0.0723
     10 C          -0.5728    2.0657   -0.8006 C.ar    1  UNL11      -0.0433
     11 C          -1.8581    2.1756   -0.2878 C.ar    1  UNL11      -0.0405
     12 C          -3.0289    1.8279   -1.1297 C.3     1  UNL11       0.0211
     13 C          -3.5633    2.9591   -1.8912 C.2     1  UNL11       0.1192
     14 N          -4.8966    2.9536   -2.1589 N.2     1  UNL11      -0.0073
     15 N          -5.5396    3.9057   -2.7748 N.am    1  UNL11      -0.0356
     16 C          -4.8980    5.0058   -3.2056 C.2     1  UNL11       0.4383
     17 O          -5.4570    5.9471   -3.7977 O.2     1  UNL11      -0.2116
     18 C          -3.5219    5.0864   -2.9691 C.ar    1  UNL11       0.1004
     19 C          -2.7931    6.1734   -3.3917 C.ar    1  UNL11      -0.0441
     20 C          -1.4467    6.2202   -3.1609 C.ar    1  UNL11      -0.0608
     21 C          -0.7800    5.2026   -2.5103 C.ar    1  UNL11      -0.0611
     22 C          -1.5235    4.1284   -2.0964 C.ar    1  UNL11      -0.0518
     23 C          -2.8735    4.0580   -2.3140 C.ar    1  UNL11       0.0192
     24 C          -1.9821    2.6221    0.9949 C.ar    1  UNL11      -0.0555
     25 C          -0.8663    2.9605    1.7798 C.ar    1  UNL11      -0.0254
     26 C           0.3846    2.8232    1.1959 C.ar    1  UNL11       0.1355
     27 F           1.4956    3.1339    1.9035 F       1  UNL11      -0.2047
     28 C           2.9339    3.0262    1.4627 C.3     1  UNL11       0.0173
     29 C           4.3269    3.5472    1.8212 C.3     1  UNL11      -0.0107
     30 H           6.2685   -0.0186    2.0869 H       1  UNL11       0.0524
     31 H           6.0801    0.0414    3.8510 H       1  UNL11       0.0524
     32 H           7.2778    1.1308    3.0943 H       1  UNL11       0.0524
     33 H           6.3380    2.8775    1.7747 H       1  UNL11       0.0597
     34 H           4.5871    0.6865    0.7156 H       1  UNL11       0.0305
     35 H           6.1631    1.3677    0.0855 H       1  UNL11       0.0305
     36 H           4.7946    3.4236   -0.6516 H       1  UNL11       0.0465
     37 H           4.2628    1.8513   -1.4396 H       1  UNL11       0.0465
     38 H          -0.4568    1.7190   -1.8021 H       1  UNL11       0.0629
     39 H          -2.8332    0.9304   -1.7583 H       1  UNL11       0.0379
     40 H          -3.8304    1.4830   -0.4198 H       1  UNL11       0.0379
     41 H          -6.5861    3.8494   -2.9583 H       1  UNL11       0.4829
     42 H          -3.3005    6.9911   -3.9090 H       1  UNL11       0.0627
     43 H          -0.8387    7.0646   -3.4801 H       1  UNL11       0.0618
     44 H           0.3064    5.2533   -2.3315 H       1  UNL11       0.0618
     45 H          -1.0219    3.3026   -1.5986 H       1  UNL11       0.0624
     46 H          -2.9332    2.7616    1.5023 H       1  UNL11       0.0621
     47 H          -0.9818    3.3112    2.7946 H       1  UNL11       0.0646
     48 H           2.2710    3.9329    1.4615 H       1  UNL11       0.0465
     49 H           2.5806    2.2769    2.1780 H       1  UNL11       0.0465
     50 H           4.5954    4.3669    1.1320 H       1  UNL11       0.0305
     51 H           4.2535    3.9113    2.8739 H       1  UNL11       0.0305
@<TRIPOS>BOND
     1     1     2    1
     2     1    30    1
     3     1    31    1
     4     1    32    1
     5     2     3    1
     6     3     4    1
     7     3    33    1
     8     4     5    1
     9     4    34    1
    10     4    35    1
    11     5     6    1
    12     5    36    1
    13     5    37    1
    14     6     7   am
    15     6    28    1
    16     7     8    2
    17     7     9    1
    18     9    10   ar
    19    10    11   ar
    20    10    38    1
    21    11    12    1
    22    11    24   ar
    23    12    13    1
    24    12    39    1
    25    12    40    1
    26    13    14    2
    27    14    15    1
    28    15    16   am
    29    15    41    1
    30    16    17    2
    31    16    18    1
    32    18    19   ar
    33    19    20   ar
    34    19    42    1
    35    20    21   ar
    36    20    43    1
    37    21    22   ar
    38    21    44    1
    39    22    23   ar
    40    22    45    1
    41    23    13    1
    42    23    18   ar
    43    24    25   ar
    44    24    46    1
    45    25    26   ar
    46    25    47    1
    47    26    27    1
    48    26     9   ar
    49    28    29    1
    50    28    48    1
    51    28    49    1
    52    29     3    1
    53    29    50    1
    54    29    51    1
@<TRIPOS>MOLECULE
*****
 51 54 0 0 0
SMALL
GASTEIGER

@<TRIPOS>ATOM
      1 C           3.0556   -3.3523   -2.2457 C.3     1  UNL11       0.0368
      2 O           3.5193   -2.0795   -2.5403 O.3     1  UNL11      -0.3797
      3 C           2.5198   -1.2292   -3.0025 C.3     1  UNL11       0.0612
      4 C           1.4242   -1.0313   -1.9997 C.3     1  UNL11      -0.0107
      5 C           0.9638    0.4073   -2.0625 C.3     1  UNL11       0.0173
      6 N           2.0726    1.2399   -1.6622 N.am    1  UNL11      -0.2973
      7 C           1.8833    2.2338   -0.6823 C.2     1  UNL11       0.2494
      8 O           2.8221    2.9945   -0.3105 O.2     1  UNL11      -0.2699
      9 C           0.5584    2.3809   -0.0848 C.ar    1  UNL11       0.0723
     10 C          -0.5728    2.0657   -0.8006 C.ar    1  UNL11      -0.0433
     11 C          -1.8581    2.1756   -0.2878 C.ar    1  UNL11      -0.0405
     12 C          -3.0289    1.8279   -1.1297 C.3     1  UNL11       0.0211
     13 C          -2.7482    0.7975   -2.1319 C.2     1  UNL11       0.1192
     14 N          -2.9280    1.1346   -3.4370 N.2     1  UNL11      -0.0073
     15 N          -2.6726    0.3577   -4.4522 N.am    1  UNL11      -0.0356
     16 C          -2.1929   -0.8846   -4.2675 C.2     1  UNL11       0.4383
     17 O          -1.9293   -1.6710   -5.1955 O.2     1  UNL11      -0.2116
     18 C          -1.9817   -1.3074   -2.9512 C.ar    1  UNL11       0.1004
     19 C          -1.5065   -2.5691   -2.6802 C.ar    1  UNL11      -0.0441
     20 C          -1.3231   -2.9624   -1.3840 C.ar    1  UNL11      -0.0608
     21 C          -1.6012   -2.1292   -0.3202 C.ar    1  UNL11      -0.0611
     22 C          -2.0733   -0.8759   -0.6105 C.ar    1  UNL11      -0.0518
     23 C          -2.2642   -0.4572   -1.9002 C.ar    1  UNL11       0.0192
     24 C          -1.9821    2.6221    0.9949 C.ar    1  UNL11      -0.0555
     25 C          -0.8663    2.9605    1.7798 C.ar    1  UNL11      -0.0254
     26 C           0.3846    2.8232    1.1959 C.ar    1  UNL11       0.1355
     27 F           1.4956    3.1339    1.9035 F       1  UNL11      -0.2047
     28 C           3.3400    0.9897   -2.3141 C.3     1  UNL11       0.0173
     29 C           3.0422    0.0728   -3.5019 C.3     1  UNL11      -0.0107
     30 H           2.2615   -3.3550   -1.4534 H       1  UNL11       0.0524
     31 H           3.9180   -3.8990   -1.7865 H       1  UNL11       0.0524
     32 H           2.7387   -3.9193   -3.1292 H       1  UNL11       0.0524
     33 H           2.0586   -1.7655   -3.8870 H       1  UNL11       0.0597
     34 H           1.8355   -1.1693   -0.9573 H       1  UNL11       0.0305
     35 H           0.5811   -1.7380   -2.1607 H       1  UNL11       0.0305
     36 H           0.6258    0.6621   -3.0991 H       1  UNL11       0.0465
     37 H           0.1102    0.5584   -1.3386 H       1  UNL11       0.0465
     38 H          -0.4568    1.7190   -1.8021 H       1  UNL11       0.0629
     39 H          -3.9288    1.6057   -0.5135 H       1  UNL11       0.0379
     40 H          -3.3094    2.7704   -1.6760 H       1  UNL11       0.0379
     41 H          -2.8322    0.6736   -5.4555 H       1  UNL11       0.4829
     42 H          -1.2794   -3.2458   -3.5073 H       1  UNL11       0.0627
     43 H          -0.9479   -3.9526   -1.1323 H       1  UNL11       0.0618
     44 H          -1.4492   -2.4598    0.7202 H       1  UNL11       0.0618
     45 H          -2.3198   -0.2045    0.2079 H       1  UNL11       0.0624
     46 H          -2.9332    2.7616    1.5023 H       1  UNL11       0.0621
     47 H          -0.9818    3.3112    2.7946 H       1  UNL11       0.0646
     48 H           3.6747    1.9611   -2.7679 H       1  UNL11       0.0465
     49 H           4.1096    0.5720   -1.6576 H       1  UNL11       0.0465
     50 H           2.3370    0.5802   -4.1833 H       1  UNL11       0.0305
     51 H           4.0250   -0.1095   -3.9991 H       1  UNL11       0.0305
@<TRIPOS>BOND
     1     1     2    1
     2     1    30    1
     3     1    31    1
     4     1    32    1
     5     2     3    1
     6     3     4    1
     7     3    33    1
     8     4     5    1
     9     4    34    1
    10     4    35    1
    11     5     6    1
    12     5    36    1
    13     5    37    1
    14     6     7   am
    15     6    28    1
    16     7     8    2
    17     7     9    1
    18     9    10   ar
    19    10    11   ar
    20    10    38    1
    21    11    12    1
    22    11    24   ar
    23    12    13    1
    24    12    39    1
    25    12    40    1
    26    13    14    2
    27    14    15    1
    28    15    16   am
    29    15    41    1
    30    16    17    2
    31    16    18    1
    32    18    19   ar
    33    19    20   ar
    34    19    42    1
    35    20    21   ar
    36    20    43    1
    37    21    22   ar
    38    21    44    1
    39    22    23   ar
    40    22    45    1
    41    23    13    1
    42    23    18   ar
    43    24    25   ar
    44    24    46    1
    45    25    26   ar
    46    25    47    1
    47    26    27    1
    48    26     9   ar
    49    28    29    1
    50    28    48    1
    51    28    49    1
    52    29     3    1
    53    29    50    1
    54    29    51    1
@<TRIPOS>MOLECULE
*****
 51 54 0 0 0
SMALL
GASTEIGER

@<TRIPOS>ATOM
      1 C           3.9020   -1.0171   -5.1881 C.3     1  UNL11       0.0368
      2 O           2.8430   -1.0476   -4.2941 O.3     1  UNL11      -0.3797
      3 C           2.0741    0.1115   -4.3210 C.3     1  UNL11       0.0612
      4 C           0.9429    0.0742   -3.3391 C.3     1  UNL11      -0.0107
      5 C           0.7732    1.4528   -2.7424 C.3     1  UNL11       0.0173
      6 N           1.9754    1.7624   -2.0064 N.am    1  UNL11      -0.2973
      7 C           1.8833    2.2338   -0.6823 C.2     1  UNL11       0.2494
      8 O           2.9086    2.5299   -0.0045 O.2     1  UNL11      -0.2699
      9 C           0.5584    2.3809   -0.0848 C.ar    1  UNL11       0.0723
     10 C          -0.5728    2.0657   -0.8006 C.ar    1  UNL11      -0.0433
     11 C          -1.8581    2.1756   -0.2878 C.ar    1  UNL11      -0.0405
     12 C          -3.0289    1.8279   -1.1297 C.3     1  UNL11       0.0211
     13 C          -3.1300    2.6236   -2.3551 C.2     1  UNL11       0.1192
     14 N          -2.5126    2.1368   -3.4648 N.2     1  UNL11      -0.0073
     15 N          -2.5503    2.6896   -4.6448 N.am    1  UNL11      -0.0356
     16 C          -3.2329    3.8291   -4.8520 C.2     1  UNL11       0.4383
     17 O          -3.3064    4.4025   -5.9543 O.2     1  UNL11      -0.2116
     18 C          -3.8952    4.3946   -3.7577 C.ar    1  UNL11       0.1004
     19 C          -4.6028    5.5667   -3.8864 C.ar    1  UNL11      -0.0441
     20 C          -5.2287    6.1059   -2.7974 C.ar    1  UNL11      -0.0608
     21 C          -5.1766    5.5102   -1.5541 C.ar    1  UNL11      -0.0611
     22 C          -4.4672    4.3427   -1.4461 C.ar    1  UNL11      -0.0518
     23 C          -3.8328    3.7814   -2.5218 C.ar    1  UNL11       0.0192
     24 C          -1.9821    2.6221    0.9949 C.ar    1  UNL11      -0.0555
     25 C          -0.8663    2.9605    1.7798 C.ar    1  UNL11      -0.0254
     26 C           0.3846    2.8232    1.1959 C.ar    1  UNL11       0.1355
     27 F           1.4956    3.1339    1.9035 F       1  UNL11      -0.2047
     28 C           3.2299    1.5620   -2.6993 C.3     1  UNL11       0.0173
     29 C           2.8813    1.3542   -4.1743 C.3     1  UNL11      -0.0107
     30 H           3.5710   -0.8946   -6.2529 H       1  UNL11       0.0524
     31 H           4.3702   -2.0334   -5.1504 H       1  UNL11       0.0524
     32 H           4.6771   -0.2873   -4.9254 H       1  UNL11       0.0524
     33 H           1.6084    0.1356   -5.3532 H       1  UNL11       0.0597
     34 H           1.2158   -0.5962   -2.4725 H       1  UNL11       0.0305
     35 H           0.0007   -0.2890   -3.8045 H       1  UNL11       0.0305
     36 H           0.5935    2.2064   -3.5508 H       1  UNL11       0.0465
     37 H          -0.1030    1.4464   -2.0299 H       1  UNL11       0.0465
     38 H          -0.4568    1.7190   -1.8021 H       1  UNL11       0.0629
     39 H          -3.0947    0.7319   -1.3126 H       1  UNL11       0.0379
     40 H          -3.9375    2.0458   -0.5033 H       1  UNL11       0.0379
     41 H          -2.0476    2.2645   -5.4806 H       1  UNL11       0.4829
     42 H          -4.6576    6.0558   -4.8618 H       1  UNL11       0.0627
     43 H          -5.7981    7.0312   -2.8623 H       1  UNL11       0.0618
     44 H          -5.6856    5.9565   -0.6843 H       1  UNL11       0.0618
     45 H          -4.3923    3.8612   -0.4745 H       1  UNL11       0.0624
     46 H          -2.9332    2.7616    1.5023 H       1  UNL11       0.0621
     47 H          -0.9818    3.3112    2.7946 H       1  UNL11       0.0646
     48 H           3.7863    2.5370   -2.6621 H       1  UNL11       0.0465
     49 H           3.8375    0.7426   -2.3030 H       1  UNL11       0.0465
     50 H           2.3561    2.2490   -4.5518 H       1  UNL11       0.0305
     51 H           3.8555    1.2054   -4.6988 H       1  UNL11       0.0305
@<TRIPOS>BOND
     1     1     2    1
     2     1    30    1
     3     1    31    1
     4     1    32    1
     5     2     3    1
     6     3     4    1
     7     3    33    1
     8     4     5    1
     9     4    34    1
    10     4    35    1
    11     5     6    1
    12     5    36    1
    13     5    37    1
    14     6     7   am
    15     6    28    1
    16     7     8    2
    17     7     9    1
    18     9    10   ar
    19    10    11   ar
    20    10    38    1
    21    11    12    1
    22    11    24   ar
    23    12    13    1
    24    12    39    1
    25    12    40    1
    26    13    14    2
    27    14    15    1
    28    15    16   am
    29    15    41    1
    30    16    17    2
    31    16    18    1
    32    18    19   ar
    33    19    20   ar
    34    19    42    1
    35    20    21   ar
    36    20    43    1
    37    21    22   ar
    38    21    44    1
    39    22    23   ar
    40    22    45    1
    41    23    13    1
    42    23    18   ar
    43    24    25   ar
    44    24    46    1
    45    25    26   ar
    46    25    47    1
    47    26    27    1
    48    26     9   ar
    49    28    29    1
    50    28    48    1
    51    28    49    1
    52    29     3    1
    53    29    50    1
    54    29    51    1
@<TRIPOS>MOLECULE
*****
 51 54 0 0 0
SMALL
GASTEIGER

@<TRIPOS>ATOM
      1 C           3.6795    0.9688   -6.1704 C.3     1  UNL11       0.0368
      2 O           2.5513    0.7729   -5.3890 O.3     1  UNL11      -0.3797
      3 C           2.0236    1.9585   -4.8877 C.3     1  UNL11       0.0612
      4 C           0.8150    1.7331   -4.0312 C.3     1  UNL11      -0.0107
      5 C           0.8530    2.7050   -2.8738 C.3     1  UNL11       0.0173
      6 N           2.0138    2.3907   -2.0760 N.am    1  UNL11      -0.2973
      7 C           1.8833    2.2338   -0.6823 C.2     1  UNL11       0.2494
      8 O           2.8744    1.9714    0.0574 O.2     1  UNL11      -0.2699
      9 C           0.5584    2.3809   -0.0848 C.ar    1  UNL11       0.0723
     10 C          -0.5728    2.0657   -0.8006 C.ar    1  UNL11      -0.0433
     11 C          -1.8581    2.1756   -0.2878 C.ar    1  UNL11      -0.0405
     12 C          -3.0289    1.8279   -1.1297 C.3     1  UNL11       0.0211
     13 C          -2.7482    0.7975   -2.1319 C.2     1  UNL11       0.1192
     14 N          -3.4747   -0.3501   -2.0636 N.2     1  UNL11      -0.0073
     15 N          -3.3896   -1.3405   -2.9070 N.am    1  UNL11      -0.0356
     16 C          -2.5393   -1.2904   -3.9472 C.2     1  UNL11       0.4383
     17 O          -2.4144   -2.2025   -4.7848 O.2     1  UNL11      -0.2116
     18 C          -1.7541   -0.1415   -4.0862 C.ar    1  UNL11       0.1004
     19 C          -0.8508   -0.0213   -5.1162 C.ar    1  UNL11      -0.0441
     20 C          -0.0850    1.1061   -5.2204 C.ar    1  UNL11      -0.0608
     21 C          -0.1846    2.1445   -4.3175 C.ar    1  UNL11      -0.0611
     22 C          -1.0906    2.0062   -3.2987 C.ar    1  UNL11      -0.0518
     23 C          -1.8706    0.8879   -3.1729 C.ar    1  UNL11       0.0192
     24 C          -1.9821    2.6221    0.9949 C.ar    1  UNL11      -0.0555
     25 C          -0.8663    2.9605    1.7798 C.ar    1  UNL11      -0.0254
     26 C           0.3846    2.8232    1.1959 C.ar    1  UNL11       0.1355
     27 F           1.4956    3.1339    1.9035 F       1  UNL11      -0.2047
     28 C           3.2691    2.2545   -2.7827 C.3     1  UNL11       0.0173
     29 C           3.0341    2.8021   -4.1917 C.3     1  UNL11      -0.0107
     30 H           3.4842    1.6183   -7.0639 H       1  UNL11       0.0524
     31 H           3.9397   -0.0329   -6.5977 H       1  UNL11       0.0524
     32 H           4.5497    1.3215   -5.6040 H       1  UNL11       0.0524
     33 H           1.6749    2.5367   -5.7970 H       1  UNL11       0.0597
     34 H           0.8687    0.7071   -3.5630 H       1  UNL11       0.0305
     35 H          -0.1287    1.8252   -4.6119 H       1  UNL11       0.0305
     36 H           0.9005    3.7577   -3.2522 H       1  UNL11       0.0465
     37 H          -0.0742    2.5713   -2.2430 H       1  UNL11       0.0465
     38 H          -0.4568    1.7190   -1.8021 H       1  UNL11       0.0629
     39 H          -3.9288    1.6057   -0.5135 H       1  UNL11       0.0379
     40 H          -3.3094    2.7704   -1.6760 H       1  UNL11       0.0379
     41 H          -3.9836   -2.2173   -2.8057 H       1  UNL11       0.4829
     42 H          -0.7551   -0.8313   -5.8430 H       1  UNL11       0.0627
     43 H           0.6390    1.2360   -6.0226 H       1  UNL11       0.0618
     44 H           0.4397    3.0476   -4.4134 H       1  UNL11       0.0618
     45 H          -1.1770    2.7998   -2.5609 H       1  UNL11       0.0624
     46 H          -2.9332    2.7616    1.5023 H       1  UNL11       0.0621
     47 H          -0.9818    3.3112    2.7946 H       1  UNL11       0.0646
     48 H           3.9946    2.9675   -2.3063 H       1  UNL11       0.0465
     49 H           3.6677    1.2354   -2.8009 H       1  UNL11       0.0465
     50 H           2.7287    3.8609   -4.1225 H       1  UNL11       0.0305
     51 H           4.0090    2.6963   -4.7254 H       1  UNL11       0.0305
@<TRIPOS>BOND
     1     1     2    1
     2     1    30    1
     3     1    31    1
     4     1    32    1
     5     2     3    1
     6     3     4    1
     7     3    33    1
     8     4     5    1
     9     4    34    1
    10     4    35    1
    11     5     6    1
    12     5    36    1
    13     5    37    1
    14     6     7   am
    15     6    28    1
    16     7     8    2
    17     7     9    1
    18     9    10   ar
    19    10    11   ar
    20    10    38    1
    21    11    12    1
    22    11    24   ar
    23    12    13    1
    24    12    39    1
    25    12    40    1
    26    13    14    2
    27    14    15    1
    28    15    16   am
    29    15    41    1
    30    16    17    2
    31    16    18    1
    32    18    19   ar
    33    19    20   ar
    34    19    42    1
    35    20    21   ar
    36    20    43    1
    37    21    22   ar
    38    21    44    1
    39    22    23   ar
    40    22    45    1
    41    23    13    1
    42    23    18   ar
    43    24    25   ar
    44    24    46    1
    45    25    26   ar
    46    25    47    1
    47    26    27    1
    48    26     9   ar
    49    28    29    1
    50    28    48    1
    51    28    49    1
    52    29     3    1
    53    29    50    1
    54    29    51    1
@<TRIPOS>MOLECULE
*****
 51 54 0 0 0
SMALL
GASTEIGER

@<TRIPOS>ATOM
      1 C           4.5461   -2.2573   -3.4546 C.3     1  UNL11       0.0368
      2 O           3.5193   -2.0795   -2.5403 O.3     1  UNL11      -0.3797
      3 C           2.5198   -1.2292   -3.0025 C.3     1  UNL11       0.0612
      4 C           1.4242   -1.0313   -1.9997 C.3     1  UNL11      -0.0107
      5 C           0.9638    0.4073   -2.0625 C.3     1  UNL11       0.0173
      6 N           2.0726    1.2399   -1.6622 N.am    1  UNL11      -0.2973
      7 C           1.8833    2.2338   -0.6823 C.2     1  UNL11       0.2494
      8 O           2.8221    2.9945   -0.3105 O.2     1  UNL11      -0.2699
      9 C           0.5584    2.3809   -0.0848 C.ar    1  UNL11       0.0723
     10 C          -0.5728    2.0657   -0.8006 C.ar    1  UNL11      -0.0433
     11 C          -1.8581    2.1756   -0.2878 C.ar    1  UNL11      -0.0405
     12 C          -3.0289    1.8279   -1.1297 C.3     1  UNL11       0.0211
     13 C          -4.1693    1.3131   -0.3685 C.2     1  UNL11       0.1192
     14 N          -5.3354    2.0081   -0.4499 N.2     1  UNL11      -0.0073
     15 N          -6.4556    1.6587    0.1181 N.am    1  UNL11      -0.0356
     16 C          -6.5355    0.5373    0.8553 C.2     1  UNL11       0.4383
     17 O          -7.5754    0.1517    1.4201 O.2     1  UNL11      -0.2116
     18 C          -5.3760   -0.2334    0.9886 C.ar    1  UNL11       0.1004
     19 C          -5.3741   -1.3864    1.7380 C.ar    1  UNL11      -0.0441
     20 C          -4.2233   -2.1131    1.8641 C.ar    1  UNL11      -0.0608
     21 C          -3.0447   -1.7281    1.2592 C.ar    1  UNL11      -0.0611
     22 C          -3.0668   -0.5767    0.5163 C.ar    1  UNL11      -0.0518
     23 C          -4.2067    0.1682    0.3731 C.ar    1  UNL11       0.0192
     24 C          -1.9821    2.6221    0.9949 C.ar    1  UNL11      -0.0555
     25 C          -0.8663    2.9605    1.7798 C.ar    1  UNL11      -0.0254
     26 C           0.3846    2.8232    1.1959 C.ar    1  UNL11       0.1355
     27 F           1.4956    3.1339    1.9035 F       1  UNL11      -0.2047
     28 C           3.3400    0.9897   -2.3141 C.3     1  UNL11       0.0173
     29 C           3.0422    0.0728   -3.5019 C.3     1  UNL11      -0.0107
     30 H           4.1952   -2.6971   -4.4250 H       1  UNL11       0.0524
     31 H           5.2213   -3.0357   -3.0166 H       1  UNL11       0.0524
     32 H           5.1472   -1.3552   -3.6203 H       1  UNL11       0.0524
     33 H           2.0586   -1.7655   -3.8870 H       1  UNL11       0.0597
     34 H           1.8355   -1.1693   -0.9573 H       1  UNL11       0.0305
     35 H           0.5811   -1.7380   -2.1607 H       1  UNL11       0.0305
     36 H           0.6258    0.6621   -3.0991 H       1  UNL11       0.0465
     37 H           0.1102    0.5584   -1.3386 H       1  UNL11       0.0465
     38 H          -0.4568    1.7190   -1.8021 H       1  UNL11       0.0629
     39 H          -3.3017    2.6574   -1.8199 H       1  UNL11       0.0379
     40 H          -2.6821    1.0119   -1.8221 H       1  UNL11       0.0379
     41 H          -7.3404    2.2414    0.0211 H       1  UNL11       0.4829
     42 H          -6.2963   -1.7104    2.2260 H       1  UNL11       0.0627
     43 H          -4.1851   -3.0307    2.4482 H       1  UNL11       0.0618
     44 H          -2.1239   -2.3235    1.3700 H       1  UNL11       0.0618
     45 H          -2.1481   -0.2382    0.0443 H       1  UNL11       0.0624
     46 H          -2.9332    2.7616    1.5023 H       1  UNL11       0.0621
     47 H          -0.9818    3.3112    2.7946 H       1  UNL11       0.0646
     48 H           3.6747    1.9611   -2.7679 H       1  UNL11       0.0465
     49 H           4.1096    0.5720   -1.6576 H       1  UNL11       0.0465
     50 H           2.3370    0.5802   -4.1833 H       1  UNL11       0.0305
     51 H           4.0250   -0.1095   -3.9991 H       1  UNL11       0.0305
@<TRIPOS>BOND
     1     1     2    1
     2     1    30    1
     3     1    31    1
     4     1    32    1
     5     2     3    1
     6     3     4    1
     7     3    33    1
     8     4     5    1
     9     4    34    1
    10     4    35    1
    11     5     6    1
    12     5    36    1
    13     5    37    1
    14     6     7   am
    15     6    28    1
    16     7     8    2
    17     7     9    1
    18     9    10   ar
    19    10    11   ar
    20    10    38    1
    21    11    12    1
    22    11    24   ar
    23    12    13    1
    24    12    39    1
    25    12    40    1
    26    13    14    2
    27    14    15    1
    28    15    16   am
    29    15    41    1
    30    16    17    2
    31    16    18    1
    32    18    19   ar
    33    19    20   ar
    34    19    42    1
    35    20    21   ar
    36    20    43    1
    37    21    22   ar
    38    21    44    1
    39    22    23   ar
    40    22    45    1
    41    23    13    1
    42    23    18   ar
    43    24    25   ar
    44    24    46    1
    45    25    26   ar
    46    25    47    1
    47    26    27    1
    48    26     9   ar
    49    28    29    1
    50    28    48    1
    51    28    49    1
    52    29     3    1
    53    29    50    1
    54    29    51    1
@<TRIPOS>MOLECULE
*****
 51 54 0 0 0
SMALL
GASTEIGER

@<TRIPOS>ATOM
      1 C           3.0556   -3.3523   -2.2457 C.3     1  UNL11       0.0368
      2 O           3.5193   -2.0795   -2.5403 O.3     1  UNL11      -0.3797
      3 C           2.5198   -1.2292   -3.0025 C.3     1  UNL11       0.0612
      4 C           1.4242   -1.0313   -1.9997 C.3     1  UNL11      -0.0107
      5 C           0.9638    0.4073   -2.0625 C.3     1  UNL11       0.0173
      6 N           2.0726    1.2399   -1.6622 N.am    1  UNL11      -0.2973
      7 C           1.8833    2.2338   -0.6823 C.2     1  UNL11       0.2494
      8 O           2.8221    2.9945   -0.3105 O.2     1  UNL11      -0.2699
      9 C           0.5584    2.3809   -0.0848 C.ar    1  UNL11       0.0723
     10 C          -0.5728    2.0657   -0.8006 C.ar    1  UNL11      -0.0433
     11 C          -1.8581    2.1756   -0.2878 C.ar    1  UNL11      -0.0405
     12 C          -3.0289    1.8279   -1.1297 C.3     1  UNL11       0.0211
     13 C          -3.8481    0.7451   -0.5807 C.2     1  UNL11       0.1192
     14 N          -5.1491    1.0288   -0.3045 N.2     1  UNL11      -0.0073
     15 N          -6.0252    0.1692    0.1347 N.am    1  UNL11      -0.0356
     16 C          -5.6847   -1.1128    0.3537 C.2     1  UNL11       0.4383
     17 O          -6.4758   -1.9785    0.7708 O.2     1  UNL11      -0.2116
     18 C          -4.3615   -1.4842    0.0944 C.ar    1  UNL11       0.1004
     19 C          -3.9332   -2.7736    0.3070 C.ar    1  UNL11      -0.0441
     20 C          -2.6307   -3.1065    0.0596 C.ar    1  UNL11      -0.0608
     21 C          -1.7147   -2.1840   -0.4021 C.ar    1  UNL11      -0.0611
     22 C          -2.1607   -0.9048   -0.6083 C.ar    1  UNL11      -0.0518
     23 C          -3.4604   -0.5462   -0.3697 C.ar    1  UNL11       0.0192
     24 C          -1.9821    2.6221    0.9949 C.ar    1  UNL11      -0.0555
     25 C          -0.8663    2.9605    1.7798 C.ar    1  UNL11      -0.0254
     26 C           0.3846    2.8232    1.1959 C.ar    1  UNL11       0.1355
     27 F           1.4956    3.1339    1.9035 F       1  UNL11      -0.2047
     28 C           3.3400    0.9897   -2.3141 C.3     1  UNL11       0.0173
     29 C           3.0422    0.0728   -3.5019 C.3     1  UNL11      -0.0107
     30 H           2.2615   -3.3550   -1.4534 H       1  UNL11       0.0524
     31 H           3.9180   -3.8990   -1.7865 H       1  UNL11       0.0524
     32 H           2.7387   -3.9193   -3.1292 H       1  UNL11       0.0524
     33 H           2.0586   -1.7655   -3.8870 H       1  UNL11       0.0597
     34 H           1.8355   -1.1693   -0.9573 H       1  UNL11       0.0305
     35 H           0.5811   -1.7380   -2.1607 H       1  UNL11       0.0305
     36 H           0.6258    0.6621   -3.0991 H       1  UNL11       0.0465
     37 H           0.1102    0.5584   -1.3386 H       1  UNL11       0.0465
     38 H          -0.4568    1.7190   -1.8021 H       1  UNL11       0.0629
     39 H          -3.6216    2.7291   -1.4047 H       1  UNL11       0.0379
     40 H          -2.6108    1.4769   -2.1133 H       1  UNL11       0.0379
     41 H          -7.0327    0.4462    0.3346 H       1  UNL11       0.4829
     42 H          -4.6415   -3.5208    0.6724 H       1  UNL11       0.0627
     43 H          -2.2570   -4.1168    0.2155 H       1  UNL11       0.0618
     44 H          -0.6672   -2.4663   -0.5968 H       1  UNL11       0.0618
     45 H          -1.4566   -0.1519   -0.9530 H       1  UNL11       0.0624
     46 H          -2.9332    2.7616    1.5023 H       1  UNL11       0.0621
     47 H          -0.9818    3.3112    2.7946 H       1  UNL11       0.0646
     48 H           3.6747    1.9611   -2.7679 H       1  UNL11       0.0465
     49 H           4.1096    0.5720   -1.6576 H       1  UNL11       0.0465
     50 H           2.3370    0.5802   -4.1833 H       1  UNL11       0.0305
     51 H           4.0250   -0.1095   -3.9991 H       1  UNL11       0.0305
@<TRIPOS>BOND
     1     1     2    1
     2     1    30    1
     3     1    31    1
     4     1    32    1
     5     2     3    1
     6     3     4    1
     7     3    33    1
     8     4     5    1
     9     4    34    1
    10     4    35    1
    11     5     6    1
    12     5    36    1
    13     5    37    1
    14     6     7   am
    15     6    28    1
    16     7     8    2
    17     7     9    1
    18     9    10   ar
    19    10    11   ar
    20    10    38    1
    21    11    12    1
    22    11    24   ar
    23    12    13    1
    24    12    39    1
    25    12    40    1
    26    13    14    2
    27    14    15    1
    28    15    16   am
    29    15    41    1
    30    16    17    2
    31    16    18    1
    32    18    19   ar
    33    19    20   ar
    34    19    42    1
    35    20    21   ar
    36    20    43    1
    37    21    22   ar
    38    21    44    1
    39    22    23   ar
    40    22    45    1
    41    23    13    1
    42    23    18   ar
    43    24    25   ar
    44    24    46    1
    45    25    26   ar
    46    25    47    1
    47    26    27    1
    48    26     9   ar
    49    28    29    1
    50    28    48    1
    51    28    49    1
    52    29     3    1
    53    29    50    1
    54    29    51    1
@<TRIPOS>MOLECULE
*****
 51 54 0 0 0
SMALL
GASTEIGER

@<TRIPOS>ATOM
      1 C           5.5294   -1.6699    1.8652 C.3     1  UNL11       0.0368
      2 O           4.7111   -0.6190    2.2499 O.3     1  UNL11      -0.3797
      3 C           5.0153    0.5736    1.6013 C.3     1  UNL11       0.0612
      4 C           4.8628    0.4745    0.1141 C.3     1  UNL11      -0.0107
      5 C           4.2911    1.7752   -0.4024 C.3     1  UNL11       0.0173
      6 N           2.9703    1.9266    0.1592 N.am    1  UNL11      -0.2973
      7 C           1.8833    2.2338   -0.6823 C.2     1  UNL11       0.2494
      8 O           2.0241    2.3840   -1.9297 O.2     1  UNL11      -0.2699
      9 C           0.5584    2.3809   -0.0848 C.ar    1  UNL11       0.0723
     10 C          -0.5728    2.0657   -0.8006 C.ar    1  UNL11      -0.0433
     11 C          -1.8581    2.1756   -0.2878 C.ar    1  UNL11      -0.0405
     12 C          -3.0289    1.8279   -1.1297 C.3     1  UNL11       0.0211
     13 C          -2.6727    1.3844   -2.4793 C.2     1  UNL11       0.1192
     14 N          -2.5870    2.3384   -3.4446 N.2     1  UNL11      -0.0073
     15 N          -2.2298    2.1228   -4.6796 N.am    1  UNL11      -0.0356
     16 C          -1.9079    0.8869   -5.0996 C.2     1  UNL11       0.4383
     17 O          -1.5588    0.6195   -6.2639 O.2     1  UNL11      -0.2116
     18 C          -1.9727   -0.1514   -4.1648 C.ar    1  UNL11       0.1004
     19 C          -1.6722   -1.4451   -4.5212 C.ar    1  UNL11      -0.0441
     20 C          -1.7579   -2.4435   -3.5916 C.ar    1  UNL11      -0.0608
     21 C          -2.1409   -2.1995   -2.2889 C.ar    1  UNL11      -0.0611
     22 C          -2.4357   -0.9040   -1.9529 C.ar    1  UNL11      -0.0518
     23 C          -2.3560    0.1142   -2.8648 C.ar    1  UNL11       0.0192
     24 C          -1.9821    2.6221    0.9949 C.ar    1  UNL11      -0.0555
     25 C          -0.8663    2.9605    1.7798 C.ar    1  UNL11      -0.0254
     26 C           0.3846    2.8232    1.1959 C.ar    1  UNL11       0.1355
     27 F           1.4956    3.1339    1.9035 F       1  UNL11      -0.2047
     28 C           2.8493    1.7476    1.5899 C.3     1  UNL11       0.0173
     29 C           4.2739    1.7437    2.1476 C.3     1  UNL11      -0.0107
     30 H           5.4655   -1.8938    0.7679 H       1  UNL11       0.0524
     31 H           5.1193   -2.5831    2.3666 H       1  UNL11       0.0524
     32 H           6.5710   -1.5561    2.1885 H       1  UNL11       0.0524
     33 H           6.1153    0.7505    1.8047 H       1  UNL11       0.0597
     34 H           4.0922   -0.3120   -0.1359 H       1  UNL11       0.0305
     35 H           5.8233    0.2226   -0.3861 H       1  UNL11       0.0305
     36 H           4.9505    2.6320   -0.1111 H       1  UNL11       0.0465
     37 H           4.2092    1.7267   -1.5277 H       1  UNL11       0.0465
     38 H          -0.4568    1.7190   -1.8021 H       1  UNL11       0.0629
     39 H          -3.7198    1.1289   -0.6072 H       1  UNL11       0.0379
     40 H          -3.6327    2.7720   -1.2271 H       1  UNL11       0.0379
     41 H          -2.1797    2.9085   -5.3953 H       1  UNL11       0.4829
     42 H          -1.3665   -1.6615   -5.5476 H       1  UNL11       0.0627
     43 H          -1.5268   -3.4782   -3.8377 H       1  UNL11       0.0618
     44 H          -2.2063   -3.0145   -1.5498 H       1  UNL11       0.0618
     45 H          -2.7593   -0.6848   -0.9387 H       1  UNL11       0.0624
     46 H          -2.9332    2.7616    1.5023 H       1  UNL11       0.0621
     47 H          -0.9818    3.3112    2.7946 H       1  UNL11       0.0646
     48 H           2.3746    2.6795    1.9997 H       1  UNL11       0.0465
     49 H           2.2912    0.8541    1.8866 H       1  UNL11       0.0465
     50 H           4.7600    2.7052    1.9060 H       1  UNL11       0.0305
     51 H           4.1680    1.6098    3.2509 H       1  UNL11       0.0305
@<TRIPOS>BOND
     1     1     2    1
     2     1    30    1
     3     1    31    1
     4     1    32    1
     5     2     3    1
     6     3     4    1
     7     3    33    1
     8     4     5    1
     9     4    34    1
    10     4    35    1
    11     5     6    1
    12     5    36    1
    13     5    37    1
    14     6     7   am
    15     6    28    1
    16     7     8    2
    17     7     9    1
    18     9    10   ar
    19    10    11   ar
    20    10    38    1
    21    11    12    1
    22    11    24   ar
    23    12    13    1
    24    12    39    1
    25    12    40    1
    26    13    14    2
    27    14    15    1
    28    15    16   am
    29    15    41    1
    30    16    17    2
    31    16    18    1
    32    18    19   ar
    33    19    20   ar
    34    19    42    1
    35    20    21   ar
    36    20    43    1
    37    21    22   ar
    38    21    44    1
    39    22    23   ar
    40    22    45    1
    41    23    13    1
    42    23    18   ar
    43    24    25   ar
    44    24    46    1
    45    25    26   ar
    46    25    47    1
    47    26    27    1
    48    26     9   ar
    49    28    29    1
    50    28    48    1
    51    28    49    1
    52    29     3    1
    53    29    50    1
    54    29    51    1
@<TRIPOS>MOLECULE
*****
 51 54 0 0 0
SMALL
GASTEIGER

@<TRIPOS>ATOM
      1 C           4.1257   -1.6238   -1.3799 C.3     1  UNL11       0.0368
      2 O           3.5193   -2.0795   -2.5403 O.3     1  UNL11      -0.3797
      3 C           2.5198   -1.2292   -3.0025 C.3     1  UNL11       0.0612
      4 C           1.4242   -1.0313   -1.9997 C.3     1  UNL11      -0.0107
      5 C           0.9638    0.4073   -2.0625 C.3     1  UNL11       0.0173
      6 N           2.0726    1.2399   -1.6622 N.am    1  UNL11      -0.2973
      7 C           1.8833    2.2338   -0.6823 C.2     1  UNL11       0.2494
      8 O           2.8221    2.9945   -0.3105 O.2     1  UNL11      -0.2699
      9 C           0.5584    2.3809   -0.0848 C.ar    1  UNL11       0.0723
     10 C          -0.5728    2.0657   -0.8006 C.ar    1  UNL11      -0.0433
     11 C          -1.8581    2.1756   -0.2878 C.ar    1  UNL11      -0.0405
     12 C          -3.0289    1.8279   -1.1297 C.3     1  UNL11       0.0211
     13 C          -3.0356    0.4351   -1.5826 C.2     1  UNL11       0.1192
     14 N          -4.2480   -0.1484   -1.7797 N.2     1  UNL11      -0.0073
     15 N          -4.4316   -1.3574   -2.2315 N.am    1  UNL11      -0.0356
     16 C          -3.3869   -2.1427   -2.5467 C.2     1  UNL11       0.4383
     17 O          -3.4987   -3.3031   -2.9827 O.2     1  UNL11      -0.2116
     18 C          -2.1040   -1.6146   -2.3701 C.ar    1  UNL11       0.1004
     19 C          -0.9851   -2.3610   -2.6568 C.ar    1  UNL11      -0.0441
     20 C           0.2573   -1.8257   -2.4611 C.ar    1  UNL11      -0.0608
     21 C           0.4350   -0.5454   -1.9790 C.ar    1  UNL11      -0.0611
     22 C          -0.6920    0.1827   -1.6998 C.ar    1  UNL11      -0.0518
     23 C          -1.9476   -0.3297   -1.8885 C.ar    1  UNL11       0.0192
     24 C          -1.9821    2.6221    0.9949 C.ar    1  UNL11      -0.0555
     25 C          -0.8663    2.9605    1.7798 C.ar    1  UNL11      -0.0254
     26 C           0.3846    2.8232    1.1959 C.ar    1  UNL11       0.1355
     27 F           1.4956    3.1339    1.9035 F       1  UNL11      -0.2047
     28 C           3.3400    0.9897   -2.3141 C.3     1  UNL11       0.0173
     29 C           3.0422    0.0728   -3.5019 C.3     1  UNL11      -0.0107
     30 H           4.6120   -0.6209   -1.5064 H       1  UNL11       0.0524
     31 H           4.9724   -2.3271   -1.1747 H       1  UNL11       0.0524
     32 H           3.4653   -1.6389   -0.5047 H       1  UNL11       0.0524
     33 H           2.0586   -1.7655   -3.8870 H       1  UNL11       0.0597
     34 H           1.8355   -1.1693   -0.9573 H       1  UNL11       0.0305
     35 H           0.5811   -1.7380   -2.1607 H       1  UNL11       0.0305
     36 H           0.6258    0.6621   -3.0991 H       1  UNL11       0.0465
     37 H           0.1102    0.5584   -1.3386 H       1  UNL11       0.0465
     38 H          -0.4568    1.7190   -1.8021 H       1  UNL11       0.0629
     39 H          -3.9861    2.1381   -0.6538 H       1  UNL11       0.0379
     40 H          -2.9623    2.4845   -2.0406 H       1  UNL11       0.0379
     41 H          -5.4050   -1.7648   -2.3669 H       1  UNL11       0.4829
     42 H          -1.1021   -3.3774   -3.0398 H       1  UNL11       0.0627
     43 H           1.1645   -2.3867   -2.6780 H       1  UNL11       0.0618
     44 H           1.4429   -0.1268   -1.8255 H       1  UNL11       0.0618
     45 H          -0.5828    1.1875   -1.3000 H       1  UNL11       0.0624
     46 H          -2.9332    2.7616    1.5023 H       1  UNL11       0.0621
     47 H          -0.9818    3.3112    2.7946 H       1  UNL11       0.0646
     48 H           3.6747    1.9611   -2.7679 H       1  UNL11       0.0465
     49 H           4.1096    0.5720   -1.6576 H       1  UNL11       0.0465
     50 H           2.3370    0.5802   -4.1833 H       1  UNL11       0.0305
     51 H           4.0250   -0.1095   -3.9991 H       1  UNL11       0.0305
@<TRIPOS>BOND
     1     1     2    1
     2     1    30    1
     3     1    31    1
     4     1    32    1
     5     2     3    1
     6     3     4    1
     7     3    33    1
     8     4     5    1
     9     4    34    1
    10     4    35    1
    11     5     6    1
    12     5    36    1
    13     5    37    1
    14     6     7   am
    15     6    28    1
    16     7     8    2
    17     7     9    1
    18     9    10   ar
    19    10    11   ar
    20    10    38    1
    21    11    12    1
    22    11    24   ar
    23    12    13    1
    24    12    39    1
    25    12    40    1
    26    13    14    2
    27    14    15    1
    28    15    16   am
    29    15    41    1
    30    16    17    2
    31    16    18    1
    32    18    19   ar
    33    19    20   ar
    34    19    42    1
    35    20    21   ar
    36    20    43    1
    37    21    22   ar
    38    21    44    1
    39    22    23   ar
    40    22    45    1
    41    23    13    1
    42    23    18   ar
    43    24    25   ar
    44    24    46    1
    45    25    26   ar
    46    25    47    1
    47    26    27    1
    48    26     9   ar
    49    28    29    1
    50    28    48    1
    51    28    49    1
    52    29     3    1
    53    29    50    1
    54    29    51    1
@<TRIPOS>MOLECULE
*****
 51 54 0 0 0
SMALL
GASTEIGER

@<TRIPOS>ATOM
      1 C           4.7935    7.3749   -1.0329 C.3     1  UNL11       0.0368
      2 O           5.0856    6.0199   -1.0612 O.3     1  UNL11      -0.3797
      3 C           4.6332    5.3417    0.0660 C.3     1  UNL11       0.0612
      4 C           3.1460    5.4248    0.2289 C.3     1  UNL11      -0.0107
      5 C           2.6401    4.0974    0.7462 C.3     1  UNL11       0.0173
      6 N           2.9102    3.1022   -0.2635 N.am    1  UNL11      -0.2973
      7 C           1.8833    2.2338   -0.6823 C.2     1  UNL11       0.2494
      8 O           2.0776    1.3389   -1.5539 O.2     1  UNL11      -0.2699
      9 C           0.5584    2.3809   -0.0848 C.ar    1  UNL11       0.0723
     10 C          -0.5728    2.0657   -0.8006 C.ar    1  UNL11      -0.0433
     11 C          -1.8581    2.1756   -0.2878 C.ar    1  UNL11      -0.0405
     12 C          -3.0289    1.8279   -1.1297 C.3     1  UNL11       0.0211
     13 C          -3.1300    2.6236   -2.3551 C.2     1  UNL11       0.1192
     14 N          -3.7042    2.0303   -3.4357 N.2     1  UNL11      -0.0073
     15 N          -3.9206    2.6126   -4.5818 N.am    1  UNL11      -0.0356
     16 C          -3.5744    3.8965   -4.7801 C.2     1  UNL11       0.4383
     17 O          -3.7562    4.5061   -5.8499 O.2     1  UNL11      -0.2116
     18 C          -2.9757    4.5771   -3.7150 C.ar    1  UNL11       0.1004
     19 C          -2.5807    5.8879   -3.8447 C.ar    1  UNL11      -0.0441
     20 C          -1.9843    6.5252   -2.7927 C.ar    1  UNL11      -0.0608
     21 C          -1.7593    5.8938   -1.5869 C.ar    1  UNL11      -0.0611
     22 C          -2.1604    4.5880   -1.4771 C.ar    1  UNL11      -0.0518
     23 C          -2.7614    3.9277   -2.5152 C.ar    1  UNL11       0.0192
     24 C          -1.9821    2.6221    0.9949 C.ar    1  UNL11      -0.0555
     25 C          -0.8663    2.9605    1.7798 C.ar    1  UNL11      -0.0254
     26 C           0.3846    2.8232    1.1959 C.ar    1  UNL11       0.1355
     27 F           1.4956    3.1339    1.9035 F       1  UNL11      -0.2047
     28 C           4.2567    3.0630   -0.7919 C.3     1  UNL11       0.0173
     29 C           5.1101    3.9326    0.1333 C.3     1  UNL11      -0.0107
     30 H           3.6929    7.5829   -0.9722 H       1  UNL11       0.0524
     31 H           5.1058    7.7812   -2.0283 H       1  UNL11       0.0524
     32 H           5.3464    7.9269   -0.2634 H       1  UNL11       0.0524
     33 H           5.0882    5.8907    0.9460 H       1  UNL11       0.0597
     34 H           2.6613    5.5570   -0.7822 H       1  UNL11       0.0305
     35 H           2.8473    6.2639    0.8943 H       1  UNL11       0.0305
     36 H           3.1472    3.8375    1.7100 H       1  UNL11       0.0465
     37 H           1.5246    4.1611    0.9109 H       1  UNL11       0.0465
     38 H          -0.4568    1.7190   -1.8021 H       1  UNL11       0.0629
     39 H          -3.0947    0.7319   -1.3126 H       1  UNL11       0.0379
     40 H          -3.9375    2.0458   -0.5033 H       1  UNL11       0.0379
     41 H          -4.3747    2.0997   -5.3957 H       1  UNL11       0.4829
     42 H          -2.7490    6.4078   -4.7907 H       1  UNL11       0.0627
     43 H          -1.6598    7.5620   -2.8590 H       1  UNL11       0.0618
     44 H          -1.2767    6.4198   -0.7472 H       1  UNL11       0.0618
     45 H          -1.9782    4.0589   -0.5453 H       1  UNL11       0.0624
     46 H          -2.9332    2.7616    1.5023 H       1  UNL11       0.0621
     47 H          -0.9818    3.3112    2.7946 H       1  UNL11       0.0646
     48 H           4.6373    2.0162   -0.6470 H       1  UNL11       0.0465
     49 H           4.3395    3.3745   -1.8378 H       1  UNL11       0.0465
     50 H           5.0714    3.5193    1.1563 H       1  UNL11       0.0305
     51 H           6.1460    3.8913   -0.2809 H       1  UNL11       0.0305
@<TRIPOS>BOND
     1     1     2    1
     2     1    30    1
     3     1    31    1
     4     1    32    1
     5     2     3    1
     6     3     4    1
     7     3    33    1
     8     4     5    1
     9     4    34    1
    10     4    35    1
    11     5     6    1
    12     5    36    1
    13     5    37    1
    14     6     7   am
    15     6    28    1
    16     7     8    2
    17     7     9    1
    18     9    10   ar
    19    10    11   ar
    20    10    38    1
    21    11    12    1
    22    11    24   ar
    23    12    13    1
    24    12    39    1
    25    12    40    1
    26    13    14    2
    27    14    15    1
    28    15    16   am
    29    15    41    1
    30    16    17    2
    31    16    18    1
    32    18    19   ar
    33    19    20   ar
    34    19    42    1
    35    20    21   ar
    36    20    43    1
    37    21    22   ar
    38    21    44    1
    39    22    23   ar
    40    22    45    1
    41    23    13    1
    42    23    18   ar
    43    24    25   ar
    44    24    46    1
    45    25    26   ar
    46    25    47    1
    47    26    27    1
    48    26     9   ar
    49    28    29    1
    50    28    48    1
    51    28    49    1
    52    29     3    1
    53    29    50    1
    54    29    51    1
@<TRIPOS>MOLECULE
*****
 51 54 0 0 0
SMALL
GASTEIGER

@<TRIPOS>ATOM
      1 C           4.7935    7.3749   -1.0329 C.3     1  UNL11       0.0368
      2 O           5.0856    6.0199   -1.0612 O.3     1  UNL11      -0.3797
      3 C           4.6332    5.3417    0.0660 C.3     1  UNL11       0.0612
      4 C           3.1460    5.4248    0.2289 C.3     1  UNL11      -0.0107
      5 C           2.6401    4.0974    0.7462 C.3     1  UNL11       0.0173
      6 N           2.9102    3.1022   -0.2635 N.am    1  UNL11      -0.2973
      7 C           1.8833    2.2338   -0.6823 C.2     1  UNL11       0.2494
      8 O           2.0776    1.3389   -1.5539 O.2     1  UNL11      -0.2699
      9 C           0.5584    2.3809   -0.0848 C.ar    1  UNL11       0.0723
     10 C          -0.5728    2.0657   -0.8006 C.ar    1  UNL11      -0.0433
     11 C          -1.8581    2.1756   -0.2878 C.ar    1  UNL11      -0.0405
     12 C          -3.0289    1.8279   -1.1297 C.3     1  UNL11       0.0211
     13 C          -3.1300    2.6236   -2.3551 C.2     1  UNL11       0.1192
     14 N          -4.3778    2.8597   -2.8416 N.2     1  UNL11      -0.0073
     15 N          -4.6471    3.5915   -3.8863 N.am    1  UNL11      -0.0356
     16 C          -3.6644    4.1881   -4.5833 C.2     1  UNL11       0.4383
     17 O          -3.8591    4.8983   -5.5867 O.2     1  UNL11      -0.2116
     18 C          -2.3504    3.9921   -4.1464 C.ar    1  UNL11       0.1004
     19 C          -1.2900    4.5576   -4.8149 C.ar    1  UNL11      -0.0441
     20 C          -0.0145    4.3379   -4.3753 C.ar    1  UNL11      -0.0608
     21 C           0.2544    3.5580   -3.2696 C.ar    1  UNL11      -0.0611
     22 C          -0.8154    3.0037   -2.6167 C.ar    1  UNL11      -0.0518
     23 C          -2.1026    3.2097   -3.0357 C.ar    1  UNL11       0.0192
     24 C          -1.9821    2.6221    0.9949 C.ar    1  UNL11      -0.0555
     25 C          -0.8663    2.9605    1.7798 C.ar    1  UNL11      -0.0254
     26 C           0.3846    2.8232    1.1959 C.ar    1  UNL11       0.1355
     27 F           1.4956    3.1339    1.9035 F       1  UNL11      -0.2047
     28 C           4.2567    3.0630   -0.7919 C.3     1  UNL11       0.0173
     29 C           5.1101    3.9326    0.1333 C.3     1  UNL11      -0.0107
     30 H           3.6929    7.5829   -0.9722 H       1  UNL11       0.0524
     31 H           5.1058    7.7812   -2.0283 H       1  UNL11       0.0524
     32 H           5.3464    7.9269   -0.2634 H       1  UNL11       0.0524
     33 H           5.0882    5.8907    0.9460 H       1  UNL11       0.0597
     34 H           2.6613    5.5570   -0.7822 H       1  UNL11       0.0305
     35 H           2.8473    6.2639    0.8943 H       1  UNL11       0.0305
     36 H           3.1472    3.8375    1.7100 H       1  UNL11       0.0465
     37 H           1.5246    4.1611    0.9109 H       1  UNL11       0.0465
     38 H          -0.4568    1.7190   -1.8021 H       1  UNL11       0.0629
     39 H          -3.0947    0.7319   -1.3126 H       1  UNL11       0.0379
     40 H          -3.9375    2.0458   -0.5033 H       1  UNL11       0.0379
     41 H          -5.6446    3.7433   -4.2238 H       1  UNL11       0.4829
     42 H          -1.4795    5.1791   -5.6932 H       1  UNL11       0.0627
     43 H           0.8485    4.7700   -4.8787 H       1  UNL11       0.0618
     44 H           1.2881    3.3888   -2.9267 H       1  UNL11       0.0618
     45 H          -0.6329    2.3684   -1.7538 H       1  UNL11       0.0624
     46 H          -2.9332    2.7616    1.5023 H       1  UNL11       0.0621
     47 H          -0.9818    3.3112    2.7946 H       1  UNL11       0.0646
     48 H           4.6373    2.0162   -0.6470 H       1  UNL11       0.0465
     49 H           4.3395    3.3745   -1.8378 H       1  UNL11       0.0465
     50 H           5.0714    3.5193    1.1563 H       1  UNL11       0.0305
     51 H           6.1460    3.8913   -0.2809 H       1  UNL11       0.0305
@<TRIPOS>BOND
     1     1     2    1
     2     1    30    1
     3     1    31    1
     4     1    32    1
     5     2     3    1
     6     3     4    1
     7     3    33    1
     8     4     5    1
     9     4    34    1
    10     4    35    1
    11     5     6    1
    12     5    36    1
    13     5    37    1
    14     6     7   am
    15     6    28    1
    16     7     8    2
    17     7     9    1
    18     9    10   ar
    19    10    11   ar
    20    10    38    1
    21    11    12    1
    22    11    24   ar
    23    12    13    1
    24    12    39    1
    25    12    40    1
    26    13    14    2
    27    14    15    1
    28    15    16   am
    29    15    41    1
    30    16    17    2
    31    16    18    1
    32    18    19   ar
    33    19    20   ar
    34    19    42    1
    35    20    21   ar
    36    20    43    1
    37    21    22   ar
    38    21    44    1
    39    22    23   ar
    40    22    45    1
    41    23    13    1
    42    23    18   ar
    43    24    25   ar
    44    24    46    1
    45    25    26   ar
    46    25    47    1
    47    26    27    1
    48    26     9   ar
    49    28    29    1
    50    28    48    1
    51    28    49    1
    52    29     3    1
    53    29    50    1
    54    29    51    1
@<TRIPOS>MOLECULE
*****
 51 54 0 0 0
SMALL
GASTEIGER

@<TRIPOS>ATOM
      1 C           3.0556   -3.3523   -2.2457 C.3     1  UNL11       0.0368
      2 O           3.5193   -2.0795   -2.5403 O.3     1  UNL11      -0.3797
      3 C           2.5198   -1.2292   -3.0025 C.3     1  UNL11       0.0612
      4 C           1.4242   -1.0313   -1.9997 C.3     1  UNL11      -0.0107
      5 C           0.9638    0.4073   -2.0625 C.3     1  UNL11       0.0173
      6 N           2.0726    1.2399   -1.6622 N.am    1  UNL11      -0.2973
      7 C           1.8833    2.2338   -0.6823 C.2     1  UNL11       0.2494
      8 O           2.8221    2.9945   -0.3105 O.2     1  UNL11      -0.2699
      9 C           0.5584    2.3809   -0.0848 C.ar    1  UNL11       0.0723
     10 C          -0.5728    2.0657   -0.8006 C.ar    1  UNL11      -0.0433
     11 C          -1.8581    2.1756   -0.2878 C.ar    1  UNL11      -0.0405
     12 C          -3.0289    1.8279   -1.1297 C.3     1  UNL11       0.0211
     13 C          -3.1300    2.6236   -2.3551 C.2     1  UNL11       0.1192
     14 N          -2.1668    3.5593   -2.5697 N.2     1  UNL11      -0.0073
     15 N          -2.0776    4.3111   -3.6310 N.am    1  UNL11      -0.0356
     16 C          -2.9726    4.2062   -4.6286 C.2     1  UNL11       0.4383
     17 O          -2.9391    4.8944   -5.6652 O.2     1  UNL11      -0.2116
     18 C          -3.9971    3.2654   -4.4824 C.ar    1  UNL11       0.1004
     19 C          -4.9586    3.1087   -5.4531 C.ar    1  UNL11      -0.0441
     20 C          -5.9576    2.1922   -5.2784 C.ar    1  UNL11      -0.0608
     21 C          -6.0400    1.4061   -4.1476 C.ar    1  UNL11      -0.0611
     22 C          -5.0725    1.5766   -3.1922 C.ar    1  UNL11      -0.0518
     23 C          -4.0605    2.4865   -3.3438 C.ar    1  UNL11       0.0192
     24 C          -1.9821    2.6221    0.9949 C.ar    1  UNL11      -0.0555
     25 C          -0.8663    2.9605    1.7798 C.ar    1  UNL11      -0.0254
     26 C           0.3846    2.8232    1.1959 C.ar    1  UNL11       0.1355
     27 F           1.4956    3.1339    1.9035 F       1  UNL11      -0.2047
     28 C           3.3400    0.9897   -2.3141 C.3     1  UNL11       0.0173
     29 C           3.0422    0.0728   -3.5019 C.3     1  UNL11      -0.0107
     30 H           2.2615   -3.3550   -1.4534 H       1  UNL11       0.0524
     31 H           3.9180   -3.8990   -1.7865 H       1  UNL11       0.0524
     32 H           2.7387   -3.9193   -3.1292 H       1  UNL11       0.0524
     33 H           2.0586   -1.7655   -3.8870 H       1  UNL11       0.0597
     34 H           1.8355   -1.1693   -0.9573 H       1  UNL11       0.0305
     35 H           0.5811   -1.7380   -2.1607 H       1  UNL11       0.0305
     36 H           0.6258    0.6621   -3.0991 H       1  UNL11       0.0465
     37 H           0.1102    0.5584   -1.3386 H       1  UNL11       0.0465
     38 H          -0.4568    1.7190   -1.8021 H       1  UNL11       0.0629
     39 H          -3.0947    0.7319   -1.3126 H       1  UNL11       0.0379
     40 H          -3.9375    2.0458   -0.5033 H       1  UNL11       0.0379
     41 H          -1.3011    5.0291   -3.7472 H       1  UNL11       0.4829
     42 H          -4.9130    3.7206   -6.3570 H       1  UNL11       0.0627
     43 H          -6.7344    2.0405   -6.0255 H       1  UNL11       0.0618
     44 H          -6.8515    0.6714   -4.0197 H       1  UNL11       0.0618
     45 H          -5.1229    0.9850   -2.2817 H       1  UNL11       0.0624
     46 H          -2.9332    2.7616    1.5023 H       1  UNL11       0.0621
     47 H          -0.9818    3.3112    2.7946 H       1  UNL11       0.0646
     48 H           3.6747    1.9611   -2.7679 H       1  UNL11       0.0465
     49 H           4.1096    0.5720   -1.6576 H       1  UNL11       0.0465
     50 H           2.3370    0.5802   -4.1833 H       1  UNL11       0.0305
     51 H           4.0250   -0.1095   -3.9991 H       1  UNL11       0.0305
@<TRIPOS>BOND
     1     1     2    1
     2     1    30    1
     3     1    31    1
     4     1    32    1
     5     2     3    1
     6     3     4    1
     7     3    33    1
     8     4     5    1
     9     4    34    1
    10     4    35    1
    11     5     6    1
    12     5    36    1
    13     5    37    1
    14     6     7   am
    15     6    28    1
    16     7     8    2
    17     7     9    1
    18     9    10   ar
    19    10    11   ar
    20    10    38    1
    21    11    12    1
    22    11    24   ar
    23    12    13    1
    24    12    39    1
    25    12    40    1
    26    13    14    2
    27    14    15    1
    28    15    16   am
    29    15    41    1
    30    16    17    2
    31    16    18    1
    32    18    19   ar
    33    19    20   ar
    34    19    42    1
    35    20    21   ar
    36    20    43    1
    37    21    22   ar
    38    21    44    1
    39    22    23   ar
    40    22    45    1
    41    23    13    1
    42    23    18   ar
    43    24    25   ar
    44    24    46    1
    45    25    26   ar
    46    25    47    1
    47    26    27    1
    48    26     9   ar
    49    28    29    1
    50    28    48    1
    51    28    49    1
    52    29     3    1
    53    29    50    1
    54    29    51    1
@<TRIPOS>MOLECULE
*****
 51 54 0 0 0
SMALL
GASTEIGER

@<TRIPOS>ATOM
      1 C           2.1187   -2.1867   -4.6100 C.3     1  UNL11       0.0368
      2 O           2.8430   -1.0476   -4.2941 O.3     1  UNL11      -0.3797
      3 C           2.0741    0.1115   -4.3210 C.3     1  UNL11       0.0612
      4 C           0.9429    0.0742   -3.3391 C.3     1  UNL11      -0.0107
      5 C           0.7732    1.4528   -2.7424 C.3     1  UNL11       0.0173
      6 N           1.9754    1.7624   -2.0064 N.am    1  UNL11      -0.2973
      7 C           1.8833    2.2338   -0.6823 C.2     1  UNL11       0.2494
      8 O           2.9086    2.5299   -0.0045 O.2     1  UNL11      -0.2699
      9 C           0.5584    2.3809   -0.0848 C.ar    1  UNL11       0.0723
     10 C          -0.5728    2.0657   -0.8006 C.ar    1  UNL11      -0.0433
     11 C          -1.8581    2.1756   -0.2878 C.ar    1  UNL11      -0.0405
     12 C          -3.0289    1.8279   -1.1297 C.3     1  UNL11       0.0211
     13 C          -4.3153    2.0110   -0.4538 C.2     1  UNL11       0.1192
     14 N          -5.4366    1.6986   -1.1569 N.2     1  UNL11      -0.0073
     15 N          -6.6520    1.7511   -0.6883 N.am    1  UNL11      -0.0356
     16 C          -6.8877    2.1350    0.5784 C.2     1  UNL11       0.4383
     17 O          -8.0239    2.2037    1.0818 O.2     1  UNL11      -0.2116
     18 C          -5.7840    2.4749    1.3674 C.ar    1  UNL11       0.1004
     19 C          -5.9446    2.8907    2.6683 C.ar    1  UNL11      -0.0441
     20 C          -4.8501    3.2312    3.4129 C.ar    1  UNL11      -0.0608
     21 C          -3.5702    3.1734    2.9013 C.ar    1  UNL11      -0.0611
     22 C          -3.4307    2.7562    1.6034 C.ar    1  UNL11      -0.0518
     23 C          -4.5106    2.4081    0.8370 C.ar    1  UNL11       0.0192
     24 C          -1.9821    2.6221    0.9949 C.ar    1  UNL11      -0.0555
     25 C          -0.8663    2.9605    1.7798 C.ar    1  UNL11      -0.0254
     26 C           0.3846    2.8232    1.1959 C.ar    1  UNL11       0.1355
     27 F           1.4956    3.1339    1.9035 F       1  UNL11      -0.2047
     28 C           3.2299    1.5620   -2.6993 C.3     1  UNL11       0.0173
     29 C           2.8813    1.3542   -4.1743 C.3     1  UNL11      -0.0107
     30 H           1.2646   -2.3700   -3.9063 H       1  UNL11       0.0524
     31 H           2.8119   -3.0509   -4.4480 H       1  UNL11       0.0524
     32 H           1.7882   -2.2207   -5.6550 H       1  UNL11       0.0524
     33 H           1.6084    0.1356   -5.3532 H       1  UNL11       0.0597
     34 H           1.2158   -0.5962   -2.4725 H       1  UNL11       0.0305
     35 H           0.0007   -0.2890   -3.8045 H       1  UNL11       0.0305
     36 H           0.5935    2.2064   -3.5508 H       1  UNL11       0.0465
     37 H          -0.1030    1.4464   -2.0299 H       1  UNL11       0.0465
     38 H          -0.4568    1.7190   -1.8021 H       1  UNL11       0.0629
     39 H          -2.9830    2.3235   -2.1253 H       1  UNL11       0.0379
     40 H          -2.9222    0.7350   -1.3739 H       1  UNL11       0.0379
     41 H          -7.4953    1.4948   -1.2841 H       1  UNL11       0.4829
     42 H          -6.9492    2.9440    3.0943 H       1  UNL11       0.0627
     43 H          -4.9392    3.5634    4.4455 H       1  UNL11       0.0618
     44 H          -2.6966    3.4516    3.5131 H       1  UNL11       0.0618
     45 H          -2.4358    2.7196    1.1672 H       1  UNL11       0.0624
     46 H          -2.9332    2.7616    1.5023 H       1  UNL11       0.0621
     47 H          -0.9818    3.3112    2.7946 H       1  UNL11       0.0646
     48 H           3.7863    2.5370   -2.6621 H       1  UNL11       0.0465
     49 H           3.8375    0.7426   -2.3030 H       1  UNL11       0.0465
     50 H           2.3561    2.2490   -4.5518 H       1  UNL11       0.0305
     51 H           3.8555    1.2054   -4.6988 H       1  UNL11       0.0305
@<TRIPOS>BOND
     1     1     2    1
     2     1    30    1
     3     1    31    1
     4     1    32    1
     5     2     3    1
     6     3     4    1
     7     3    33    1
     8     4     5    1
     9     4    34    1
    10     4    35    1
    11     5     6    1
    12     5    36    1
    13     5    37    1
    14     6     7   am
    15     6    28    1
    16     7     8    2
    17     7     9    1
    18     9    10   ar
    19    10    11   ar
    20    10    38    1
    21    11    12    1
    22    11    24   ar
    23    12    13    1
    24    12    39    1
    25    12    40    1
    26    13    14    2
    27    14    15    1
    28    15    16   am
    29    15    41    1
    30    16    17    2
    31    16    18    1
    32    18    19   ar
    33    19    20   ar
    34    19    42    1
    35    20    21   ar
    36    20    43    1
    37    21    22   ar
    38    21    44    1
    39    22    23   ar
    40    22    45    1
    41    23    13    1
    42    23    18   ar
    43    24    25   ar
    44    24    46    1
    45    25    26   ar
    46    25    47    1
    47    26    27    1
    48    26     9   ar
    49    28    29    1
    50    28    48    1
    51    28    49    1
    52    29     3    1
    53    29    50    1
    54    29    51    1
@<TRIPOS>MOLECULE
*****
 51 54 0 0 0
SMALL
GASTEIGER

@<TRIPOS>ATOM
      1 C           3.0358    5.5551   -5.4429 C.3     1  UNL11       0.0368
      2 O           2.0354    4.7066   -4.9945 O.3     1  UNL11      -0.3797
      3 C           2.5017    3.4350   -4.6767 C.3     1  UNL11       0.0612
      4 C           3.5262    3.4548   -3.5835 C.3     1  UNL11      -0.0107
      5 C           3.3101    2.2511   -2.6948 C.3     1  UNL11       0.0173
      6 N           2.0138    2.3907   -2.0760 N.am    1  UNL11      -0.2973
      7 C           1.8833    2.2338   -0.6823 C.2     1  UNL11       0.2494
      8 O           2.8744    1.9714    0.0574 O.2     1  UNL11      -0.2699
      9 C           0.5584    2.3809   -0.0848 C.ar    1  UNL11       0.0723
     10 C          -0.5728    2.0657   -0.8006 C.ar    1  UNL11      -0.0433
     11 C          -1.8581    2.1756   -0.2878 C.ar    1  UNL11      -0.0405
     12 C          -3.0289    1.8279   -1.1297 C.3     1  UNL11       0.0211
     13 C          -3.9600    2.9402   -1.3316 C.2     1  UNL11       0.1192
     14 N          -4.6542    2.9652   -2.5008 N.2     1  UNL11      -0.0073
     15 N          -5.5586    3.8499   -2.8149 N.am    1  UNL11      -0.0356
     16 C          -5.8791    4.8412   -1.9652 C.2     1  UNL11       0.4383
     17 O          -6.7335    5.7132   -2.2080 O.2     1  UNL11      -0.2116
     18 C          -5.2069    4.8855   -0.7395 C.ar    1  UNL11       0.1004
     19 C          -5.4691    5.8769    0.1767 C.ar    1  UNL11      -0.0441
     20 C          -4.7870    5.9055    1.3609 C.ar    1  UNL11      -0.0608
     21 C          -3.8302    4.9634    1.6772 C.ar    1  UNL11      -0.0611
     22 C          -3.5835    3.9833    0.7517 C.ar    1  UNL11      -0.0518
     23 C          -4.2540    3.9315   -0.4410 C.ar    1  UNL11       0.0192
     24 C          -1.9821    2.6221    0.9949 C.ar    1  UNL11      -0.0555
     25 C          -0.8663    2.9605    1.7798 C.ar    1  UNL11      -0.0254
     26 C           0.3846    2.8232    1.1959 C.ar    1  UNL11       0.1355
     27 F           1.4956    3.1339    1.9035 F       1  UNL11      -0.2047
     28 C           0.9043    2.6905   -2.9551 C.3     1  UNL11       0.0173
     29 C           1.4096    2.4667   -4.3816 C.3     1  UNL11      -0.0107
     30 H           3.8498    5.7083   -4.6864 H       1  UNL11       0.0524
     31 H           2.5608    6.5624   -5.5582 H       1  UNL11       0.0524
     32 H           3.4473    5.2711   -6.4189 H       1  UNL11       0.0524
     33 H           3.0289    3.0696   -5.6102 H       1  UNL11       0.0597
     34 H           3.3545    4.3521   -2.9200 H       1  UNL11       0.0305
     35 H           4.5623    3.4857   -3.9857 H       1  UNL11       0.0305
     36 H           3.3669    1.3087   -3.2968 H       1  UNL11       0.0465
     37 H           4.1022    2.2338   -1.8899 H       1  UNL11       0.0465
     38 H          -0.4568    1.7190   -1.8021 H       1  UNL11       0.0629
     39 H          -2.7223    1.3356   -2.0797 H       1  UNL11       0.0379
     40 H          -3.5784    1.0165   -0.5775 H       1  UNL11       0.0379
     41 H          -6.0724    3.8219   -3.7461 H       1  UNL11       0.4829
     42 H          -6.2230    6.6336   -0.0528 H       1  UNL11       0.0627
     43 H          -4.9690    6.6743    2.1096 H       1  UNL11       0.0618
     44 H          -3.2874    4.9991    2.6358 H       1  UNL11       0.0618
     45 H          -2.8208    3.2389    0.9652 H       1  UNL11       0.0624
     46 H          -2.9332    2.7616    1.5023 H       1  UNL11       0.0621
     47 H          -0.9818    3.3112    2.7946 H       1  UNL11       0.0646
     48 H           0.1280    1.8960   -2.7889 H       1  UNL11       0.0465
     49 H           0.4825    3.6917   -2.8227 H       1  UNL11       0.0465
     50 H           1.7320    1.4164   -4.4910 H       1  UNL11       0.0305
     51 H           0.5452    2.6963   -5.0497 H       1  UNL11       0.0305
@<TRIPOS>BOND
     1     1     2    1
     2     1    30    1
     3     1    31    1
     4     1    32    1
     5     2     3    1
     6     3     4    1
     7     3    33    1
     8     4     5    1
     9     4    34    1
    10     4    35    1
    11     5     6    1
    12     5    36    1
    13     5    37    1
    14     6     7   am
    15     6    28    1
    16     7     8    2
    17     7     9    1
    18     9    10   ar
    19    10    11   ar
    20    10    38    1
    21    11    12    1
    22    11    24   ar
    23    12    13    1
    24    12    39    1
    25    12    40    1
    26    13    14    2
    27    14    15    1
    28    15    16   am
    29    15    41    1
    30    16    17    2
    31    16    18    1
    32    18    19   ar
    33    19    20   ar
    34    19    42    1
    35    20    21   ar
    36    20    43    1
    37    21    22   ar
    38    21    44    1
    39    22    23   ar
    40    22    45    1
    41    23    13    1
    42    23    18   ar
    43    24    25   ar
    44    24    46    1
    45    25    26   ar
    46    25    47    1
    47    26    27    1
    48    26     9   ar
    49    28    29    1
    50    28    48    1
    51    28    49    1
    52    29     3    1
    53    29    50    1
    54    29    51    1
@<TRIPOS>MOLECULE
*****
 51 54 0 0 0
SMALL
GASTEIGER

@<TRIPOS>ATOM
      1 C           2.2914    3.1827   -6.5095 C.3     1  UNL11       0.0368
      2 O           1.4966    2.4573   -5.6354 O.3     1  UNL11      -0.3797
      3 C           2.2250    1.5835   -4.8345 C.3     1  UNL11       0.0612
      4 C           3.2228    2.2921   -3.9701 C.3     1  UNL11      -0.0107
      5 C           3.2708    1.6068   -2.6235 C.3     1  UNL11       0.0173
      6 N           1.9754    1.7624   -2.0064 N.am    1  UNL11      -0.2973
      7 C           1.8833    2.2338   -0.6823 C.2     1  UNL11       0.2494
      8 O           2.9086    2.5299   -0.0045 O.2     1  UNL11      -0.2699
      9 C           0.5584    2.3809   -0.0848 C.ar    1  UNL11       0.0723
     10 C          -0.5728    2.0657   -0.8006 C.ar    1  UNL11      -0.0433
     11 C          -1.8581    2.1756   -0.2878 C.ar    1  UNL11      -0.0405
     12 C          -3.0289    1.8279   -1.1297 C.3     1  UNL11       0.0211
     13 C          -3.4340    0.4244   -1.0241 C.2     1  UNL11       0.1192
     14 N          -4.3523    0.1128   -0.0706 N.2     1  UNL11      -0.0073
     15 N          -4.8594   -1.0729    0.1202 N.am    1  UNL11      -0.0356
     16 C          -4.4913   -2.1131   -0.6479 C.2     1  UNL11       0.4383
     17 O          -4.9404   -3.2662   -0.5147 O.2     1  UNL11      -0.2116
     18 C          -3.5477   -1.8738   -1.6521 C.ar    1  UNL11       0.1004
     19 C          -3.1104   -2.8895   -2.4695 C.ar    1  UNL11      -0.0441
     20 C          -2.1764   -2.6315   -3.4336 C.ar    1  UNL11      -0.0608
     21 C          -1.6468   -1.3715   -3.6209 C.ar    1  UNL11      -0.0611
     22 C          -2.0955   -0.3726   -2.7969 C.ar    1  UNL11      -0.0518
     23 C          -3.0314   -0.6046   -1.8248 C.ar    1  UNL11       0.0192
     24 C          -1.9821    2.6221    0.9949 C.ar    1  UNL11      -0.0555
     25 C          -0.8663    2.9605    1.7798 C.ar    1  UNL11      -0.0254
     26 C           0.3846    2.8232    1.1959 C.ar    1  UNL11       0.1355
     27 F           1.4956    3.1339    1.9035 F       1  UNL11      -0.2047
     28 C           0.8263    1.4131   -2.8135 C.3     1  UNL11       0.0173
     29 C           1.3661    0.6668   -4.0350 C.3     1  UNL11      -0.0107
     30 H           3.0546    3.8144   -5.9834 H       1  UNL11       0.0524
     31 H           1.6114    3.9167   -7.0120 H       1  UNL11       0.0524
     32 H           2.7530    2.5707   -7.2936 H       1  UNL11       0.0524
     33 H           2.8170    0.9420   -5.5562 H       1  UNL11       0.0597
     34 H           2.8636    3.3417   -3.7597 H       1  UNL11       0.0305
     35 H           4.2277    2.3336   -4.4440 H       1  UNL11       0.0305
     36 H           3.5274    0.5240   -2.7477 H       1  UNL11       0.0465
     37 H           4.0491    2.1080   -1.9765 H       1  UNL11       0.0465
     38 H          -0.4568    1.7190   -1.8021 H       1  UNL11       0.0629
     39 H          -3.8715    2.5394   -0.9788 H       1  UNL11       0.0379
     40 H          -2.7131    2.0147   -2.1931 H       1  UNL11       0.0379
     41 H          -5.5767   -1.2610    0.8831 H       1  UNL11       0.4829
     42 H          -3.5163   -3.8954   -2.3392 H       1  UNL11       0.0627
     43 H          -1.8080   -3.4102   -4.0989 H       1  UNL11       0.0618
     44 H          -0.8936   -1.1779   -4.4019 H       1  UNL11       0.0618
     45 H          -1.6815    0.6262   -2.9082 H       1  UNL11       0.0624
     46 H          -2.9332    2.7616    1.5023 H       1  UNL11       0.0621
     47 H          -0.9818    3.3112    2.7946 H       1  UNL11       0.0646
     48 H           0.2385    0.6491   -2.2369 H       1  UNL11       0.0465
     49 H           0.2000    2.2643   -3.0978 H       1  UNL11       0.0465
     50 H           1.9059   -0.2357   -3.6986 H       1  UNL11       0.0305
     51 H           0.4717    0.3987   -4.6470 H       1  UNL11       0.0305
@<TRIPOS>BOND
     1     1     2    1
     2     1    30    1
     3     1    31    1
     4     1    32    1
     5     2     3    1
     6     3     4    1
     7     3    33    1
     8     4     5    1
     9     4    34    1
    10     4    35    1
    11     5     6    1
    12     5    36    1
    13     5    37    1
    14     6     7   am
    15     6    28    1
    16     7     8    2
    17     7     9    1
    18     9    10   ar
    19    10    11   ar
    20    10    38    1
    21    11    12    1
    22    11    24   ar
    23    12    13    1
    24    12    39    1
    25    12    40    1
    26    13    14    2
    27    14    15    1
    28    15    16   am
    29    15    41    1
    30    16    17    2
    31    16    18    1
    32    18    19   ar
    33    19    20   ar
    34    19    42    1
    35    20    21   ar
    36    20    43    1
    37    21    22   ar
    38    21    44    1
    39    22    23   ar
    40    22    45    1
    41    23    13    1
    42    23    18   ar
    43    24    25   ar
    44    24    46    1
    45    25    26   ar
    46    25    47    1
    47    26    27    1
    48    26     9   ar
    49    28    29    1
    50    28    48    1
    51    28    49    1
    52    29     3    1
    53    29    50    1
    54    29    51    1
@<TRIPOS>MOLECULE
*****
 51 54 0 0 0
SMALL
GASTEIGER

@<TRIPOS>ATOM
      1 C           2.2914    3.1827   -6.5095 C.3     1  UNL11       0.0368
      2 O           1.4966    2.4573   -5.6354 O.3     1  UNL11      -0.3797
      3 C           2.2250    1.5835   -4.8345 C.3     1  UNL11       0.0612
      4 C           3.2228    2.2921   -3.9701 C.3     1  UNL11      -0.0107
      5 C           3.2708    1.6068   -2.6235 C.3     1  UNL11       0.0173
      6 N           1.9754    1.7624   -2.0064 N.am    1  UNL11      -0.2973
      7 C           1.8833    2.2338   -0.6823 C.2     1  UNL11       0.2494
      8 O           2.9086    2.5299   -0.0045 O.2     1  UNL11      -0.2699
      9 C           0.5584    2.3809   -0.0848 C.ar    1  UNL11       0.0723
     10 C          -0.5728    2.0657   -0.8006 C.ar    1  UNL11      -0.0433
     11 C          -1.8581    2.1756   -0.2878 C.ar    1  UNL11      -0.0405
     12 C          -3.0289    1.8279   -1.1297 C.3     1  UNL11       0.0211
     13 C          -3.4340    0.4244   -1.0241 C.2     1  UNL11       0.1192
     14 N          -3.1939   -0.2044    0.1576 N.2     1  UNL11      -0.0073
     15 N          -3.5395   -1.4302    0.4362 N.am    1  UNL11      -0.0356
     16 C          -4.1853   -2.1878   -0.4673 C.2     1  UNL11       0.4383
     17 O          -4.5413   -3.3622   -0.2593 O.2     1  UNL11      -0.2116
     18 C          -4.4683   -1.6124   -1.7102 C.ar    1  UNL11       0.1004
     19 C          -5.1135   -2.3280   -2.6915 C.ar    1  UNL11      -0.0441
     20 C          -5.3647   -1.7464   -3.9027 C.ar    1  UNL11      -0.0608
     21 C          -4.9896   -0.4488   -4.1833 C.ar    1  UNL11      -0.0611
     22 C          -4.3484    0.2479   -3.1927 C.ar    1  UNL11      -0.0518
     23 C          -4.0864   -0.3110   -1.9705 C.ar    1  UNL11       0.0192
     24 C          -1.9821    2.6221    0.9949 C.ar    1  UNL11      -0.0555
     25 C          -0.8663    2.9605    1.7798 C.ar    1  UNL11      -0.0254
     26 C           0.3846    2.8232    1.1959 C.ar    1  UNL11       0.1355
     27 F           1.4956    3.1339    1.9035 F       1  UNL11      -0.2047
     28 C           0.8263    1.4131   -2.8135 C.3     1  UNL11       0.0173
     29 C           1.3661    0.6668   -4.0350 C.3     1  UNL11      -0.0107
     30 H           3.0546    3.8144   -5.9834 H       1  UNL11       0.0524
     31 H           1.6114    3.9167   -7.0120 H       1  UNL11       0.0524
     32 H           2.7530    2.5707   -7.2936 H       1  UNL11       0.0524
     33 H           2.8170    0.9420   -5.5562 H       1  UNL11       0.0597
     34 H           2.8636    3.3417   -3.7597 H       1  UNL11       0.0305
     35 H           4.2277    2.3336   -4.4440 H       1  UNL11       0.0305
     36 H           3.5274    0.5240   -2.7477 H       1  UNL11       0.0465
     37 H           4.0491    2.1080   -1.9765 H       1  UNL11       0.0465
     38 H          -0.4568    1.7190   -1.8021 H       1  UNL11       0.0629
     39 H          -3.8715    2.5394   -0.9788 H       1  UNL11       0.0379
     40 H          -2.7131    2.0147   -2.1931 H       1  UNL11       0.0379
     41 H          -3.3259   -1.8734    1.3795 H       1  UNL11       0.4829
     42 H          -5.4198   -3.3573   -2.4912 H       1  UNL11       0.0627
     43 H          -5.8737   -2.2820   -4.7019 H       1  UNL11       0.0618
     44 H          -5.1980    0.0072   -5.1648 H       1  UNL11       0.0618
     45 H          -4.0235    1.2659   -3.3919 H       1  UNL11       0.0624
     46 H          -2.9332    2.7616    1.5023 H       1  UNL11       0.0621
     47 H          -0.9818    3.3112    2.7946 H       1  UNL11       0.0646
     48 H           0.2385    0.6491   -2.2369 H       1  UNL11       0.0465
     49 H           0.2000    2.2643   -3.0978 H       1  UNL11       0.0465
     50 H           1.9059   -0.2357   -3.6986 H       1  UNL11       0.0305
     51 H           0.4717    0.3987   -4.6470 H       1  UNL11       0.0305
@<TRIPOS>BOND
     1     1     2    1
     2     1    30    1
     3     1    31    1
     4     1    32    1
     5     2     3    1
     6     3     4    1
     7     3    33    1
     8     4     5    1
     9     4    34    1
    10     4    35    1
    11     5     6    1
    12     5    36    1
    13     5    37    1
    14     6     7   am
    15     6    28    1
    16     7     8    2
    17     7     9    1
    18     9    10   ar
    19    10    11   ar
    20    10    38    1
    21    11    12    1
    22    11    24   ar
    23    12    13    1
    24    12    39    1
    25    12    40    1
    26    13    14    2
    27    14    15    1
    28    15    16   am
    29    15    41    1
    30    16    17    2
    31    16    18    1
    32    18    19   ar
    33    19    20   ar
    34    19    42    1
    35    20    21   ar
    36    20    43    1
    37    21    22   ar
    38    21    44    1
    39    22    23   ar
    40    22    45    1
    41    23    13    1
    42    23    18   ar
    43    24    25   ar
    44    24    46    1
    45    25    26   ar
    46    25    47    1
    47    26    27    1
    48    26     9   ar
    49    28    29    1
    50    28    48    1
    51    28    49    1
    52    29     3    1
    53    29    50    1
    54    29    51    1
@<TRIPOS>MOLECULE
*****
 51 54 0 0 0
SMALL
GASTEIGER

@<TRIPOS>ATOM
      1 C           5.7739    6.1551    1.4413 C.3     1  UNL11       0.0368
      2 O           5.7933    4.9401    0.7740 O.3     1  UNL11      -0.3797
      3 C           5.0997    3.9386    1.4459 C.3     1  UNL11       0.0612
      4 C           3.6497    4.2680    1.6305 C.3     1  UNL11      -0.0107
      5 C           2.8395    3.0034    1.4577 C.3     1  UNL11       0.0173
      6 N           3.0119    2.5554    0.0967 N.am    1  UNL11      -0.2973
      7 C           1.8833    2.2338   -0.6823 C.2     1  UNL11       0.2494
      8 O           1.9871    1.8250   -1.8741 O.2     1  UNL11      -0.2699
      9 C           0.5584    2.3809   -0.0848 C.ar    1  UNL11       0.0723
     10 C          -0.5728    2.0657   -0.8006 C.ar    1  UNL11      -0.0433
     11 C          -1.8581    2.1756   -0.2878 C.ar    1  UNL11      -0.0405
     12 C          -3.0289    1.8279   -1.1297 C.3     1  UNL11       0.0211
     13 C          -2.7482    0.7975   -2.1319 C.2     1  UNL11       0.1192
     14 N          -2.3205    1.2178   -3.3525 N.2     1  UNL11      -0.0073
     15 N          -1.9758    0.4336   -4.3351 N.am    1  UNL11      -0.0356
     16 C          -2.0227   -0.9033   -4.2006 C.2     1  UNL11       0.4383
     17 O          -1.7057   -1.7020   -5.1009 O.2     1  UNL11      -0.2116
     18 C          -2.4545   -1.4152   -2.9728 C.ar    1  UNL11       0.1004
     19 C          -2.5429   -2.7714   -2.7626 C.ar    1  UNL11      -0.0441
     20 C          -2.9822   -3.2451   -1.5580 C.ar    1  UNL11      -0.0608
     21 C          -3.3465   -2.4018   -0.5287 C.ar    1  UNL11      -0.0611
     22 C          -3.2509   -1.0540   -0.7573 C.ar    1  UNL11      -0.0518
     23 C          -2.8124   -0.5540   -1.9542 C.ar    1  UNL11       0.0192
     24 C          -1.9821    2.6221    0.9949 C.ar    1  UNL11      -0.0555
     25 C          -0.8663    2.9605    1.7798 C.ar    1  UNL11      -0.0254
     26 C           0.3846    2.8232    1.1959 C.ar    1  UNL11       0.1355
     27 F           1.4956    3.1339    1.9035 F       1  UNL11      -0.2047
     28 C           4.3720    2.4641   -0.3888 C.3     1  UNL11       0.0173
     29 C           5.2785    2.5916    0.8368 C.3     1  UNL11      -0.0107
     30 H           4.7361    6.5522    1.5947 H       1  UNL11       0.0524
     31 H           6.2633    6.8937    0.7569 H       1  UNL11       0.0524
     32 H           6.3411    6.1493    2.3798 H       1  UNL11       0.0524
     33 H           5.5592    3.9012    2.4804 H       1  UNL11       0.0597
     34 H           3.3097    4.9572    0.8033 H       1  UNL11       0.0305
     35 H           3.4547    4.7475    2.6144 H       1  UNL11       0.0305
     36 H           3.1809    2.2214    2.1828 H       1  UNL11       0.0465
     37 H           1.7477    3.2319    1.6344 H       1  UNL11       0.0465
     38 H          -0.4568    1.7190   -1.8021 H       1  UNL11       0.0629
     39 H          -3.9288    1.6057   -0.5135 H       1  UNL11       0.0379
     40 H          -3.3094    2.7704   -1.6760 H       1  UNL11       0.0379
     41 H          -1.6476    0.8173   -5.2715 H       1  UNL11       0.4829
     42 H          -2.2596   -3.4579   -3.5637 H       1  UNL11       0.0627
     43 H          -3.0640   -4.3115   -1.3559 H       1  UNL11       0.0618
     44 H          -3.6996   -2.7978    0.4373 H       1  UNL11       0.0618
     45 H          -3.5498   -0.3652    0.0286 H       1  UNL11       0.0624
     46 H          -2.9332    2.7616    1.5023 H       1  UNL11       0.0621
     47 H          -0.9818    3.3112    2.7946 H       1  UNL11       0.0646
     48 H           4.5205    1.4136   -0.7577 H       1  UNL11       0.0465
     49 H           4.6243    3.1960   -1.1624 H       1  UNL11       0.0465
     50 H           5.0514    1.7729    1.5420 H       1  UNL11       0.0305
     51 H           6.3234    2.5153    0.4513 H       1  UNL11       0.0305
@<TRIPOS>BOND
     1     1     2    1
     2     1    30    1
     3     1    31    1
     4     1    32    1
     5     2     3    1
     6     3     4    1
     7     3    33    1
     8     4     5    1
     9     4    34    1
    10     4    35    1
    11     5     6    1
    12     5    36    1
    13     5    37    1
    14     6     7   am
    15     6    28    1
    16     7     8    2
    17     7     9    1
    18     9    10   ar
    19    10    11   ar
    20    10    38    1
    21    11    12    1
    22    11    24   ar
    23    12    13    1
    24    12    39    1
    25    12    40    1
    26    13    14    2
    27    14    15    1
    28    15    16   am
    29    15    41    1
    30    16    17    2
    31    16    18    1
    32    18    19   ar
    33    19    20   ar
    34    19    42    1
    35    20    21   ar
    36    20    43    1
    37    21    22   ar
    38    21    44    1
    39    22    23   ar
    40    22    45    1
    41    23    13    1
    42    23    18   ar
    43    24    25   ar
    44    24    46    1
    45    25    26   ar
    46    25    47    1
    47    26    27    1
    48    26     9   ar
    49    28    29    1
    50    28    48    1
    51    28    49    1
    52    29     3    1
    53    29    50    1
    54    29    51    1
@<TRIPOS>MOLECULE
*****
 51 54 0 0 0
SMALL
GASTEIGER

@<TRIPOS>ATOM
      1 C           7.1331    4.6385    0.5840 C.3     1  UNL11       0.0368
      2 O           5.7933    4.9401    0.7740 O.3     1  UNL11      -0.3797
      3 C           5.0997    3.9386    1.4459 C.3     1  UNL11       0.0612
      4 C           3.6497    4.2680    1.6305 C.3     1  UNL11      -0.0107
      5 C           2.8395    3.0034    1.4577 C.3     1  UNL11       0.0173
      6 N           3.0119    2.5554    0.0967 N.am    1  UNL11      -0.2973
      7 C           1.8833    2.2338   -0.6823 C.2     1  UNL11       0.2494
      8 O           1.9871    1.8250   -1.8741 O.2     1  UNL11      -0.2699
      9 C           0.5584    2.3809   -0.0848 C.ar    1  UNL11       0.0723
     10 C          -0.5728    2.0657   -0.8006 C.ar    1  UNL11      -0.0433
     11 C          -1.8581    2.1756   -0.2878 C.ar    1  UNL11      -0.0405
     12 C          -3.0289    1.8279   -1.1297 C.3     1  UNL11       0.0211
     13 C          -3.4340    0.4244   -1.0241 C.2     1  UNL11       0.1192
     14 N          -2.8707   -0.4524   -1.8976 N.2     1  UNL11      -0.0073
     15 N          -3.0786   -1.7394   -1.9042 N.am    1  UNL11      -0.0356
     16 C          -3.9011   -2.3105   -1.0071 C.2     1  UNL11       0.4383
     17 O          -4.1380   -3.5316   -0.9629 O.2     1  UNL11      -0.2116
     18 C          -4.5217   -1.4739   -0.0738 C.ar    1  UNL11       0.1004
     19 C          -5.3873   -1.9811    0.8666 C.ar    1  UNL11      -0.0441
     20 C          -5.9919   -1.1392    1.7578 C.ar    1  UNL11      -0.0608
     21 C          -5.7639    0.2213    1.7497 C.ar    1  UNL11      -0.0611
     22 C          -4.8978    0.7075    0.8055 C.ar    1  UNL11      -0.0518
     23 C          -4.2782   -0.1146   -0.0972 C.ar    1  UNL11       0.0192
     24 C          -1.9821    2.6221    0.9949 C.ar    1  UNL11      -0.0555
     25 C          -0.8663    2.9605    1.7798 C.ar    1  UNL11      -0.0254
     26 C           0.3846    2.8232    1.1959 C.ar    1  UNL11       0.1355
     27 F           1.4956    3.1339    1.9035 F       1  UNL11      -0.2047
     28 C           4.3720    2.4641   -0.3888 C.3     1  UNL11       0.0173
     29 C           5.2785    2.5916    0.8368 C.3     1  UNL11      -0.0107
     30 H           7.6851    4.4777    1.5472 H       1  UNL11       0.0524
     31 H           7.5980    5.5545    0.1387 H       1  UNL11       0.0524
     32 H           7.3016    3.8104   -0.1148 H       1  UNL11       0.0524
     33 H           5.5592    3.9012    2.4804 H       1  UNL11       0.0597
     34 H           3.3097    4.9572    0.8033 H       1  UNL11       0.0305
     35 H           3.4547    4.7475    2.6144 H       1  UNL11       0.0305
     36 H           3.1809    2.2214    2.1828 H       1  UNL11       0.0465
     37 H           1.7477    3.2319    1.6344 H       1  UNL11       0.0465
     38 H          -0.4568    1.7190   -1.8021 H       1  UNL11       0.0629
     39 H          -3.8715    2.5394   -0.9788 H       1  UNL11       0.0379
     40 H          -2.7131    2.0147   -2.1931 H       1  UNL11       0.0379
     41 H          -2.6102   -2.3805   -2.6123 H       1  UNL11       0.4829
     42 H          -5.5827   -3.0557    0.8915 H       1  UNL11       0.0627
     43 H          -6.6816   -1.5054    2.5161 H       1  UNL11       0.0618
     44 H          -6.2589    0.8885    2.4740 H       1  UNL11       0.0618
     45 H          -4.7140    1.7780    0.7626 H       1  UNL11       0.0624
     46 H          -2.9332    2.7616    1.5023 H       1  UNL11       0.0621
     47 H          -0.9818    3.3112    2.7946 H       1  UNL11       0.0646
     48 H           4.5205    1.4136   -0.7577 H       1  UNL11       0.0465
     49 H           4.6243    3.1960   -1.1624 H       1  UNL11       0.0465
     50 H           5.0514    1.7729    1.5420 H       1  UNL11       0.0305
     51 H           6.3234    2.5153    0.4513 H       1  UNL11       0.0305
@<TRIPOS>BOND
     1     1     2    1
     2     1    30    1
     3     1    31    1
     4     1    32    1
     5     2     3    1
     6     3     4    1
     7     3    33    1
     8     4     5    1
     9     4    34    1
    10     4    35    1
    11     5     6    1
    12     5    36    1
    13     5    37    1
    14     6     7   am
    15     6    28    1
    16     7     8    2
    17     7     9    1
    18     9    10   ar
    19    10    11   ar
    20    10    38    1
    21    11    12    1
    22    11    24   ar
    23    12    13    1
    24    12    39    1
    25    12    40    1
    26    13    14    2
    27    14    15    1
    28    15    16   am
    29    15    41    1
    30    16    17    2
    31    16    18    1
    32    18    19   ar
    33    19    20   ar
    34    19    42    1
    35    20    21   ar
    36    20    43    1
    37    21    22   ar
    38    21    44    1
    39    22    23   ar
    40    22    45    1
    41    23    13    1
    42    23    18   ar
    43    24    25   ar
    44    24    46    1
    45    25    26   ar
    46    25    47    1
    47    26    27    1
    48    26     9   ar
    49    28    29    1
    50    28    48    1
    51    28    49    1
    52    29     3    1
    53    29    50    1
    54    29    51    1
@<TRIPOS>MOLECULE
*****
 51 54 0 0 0
SMALL
GASTEIGER

@<TRIPOS>ATOM
      1 C           1.6581    0.0766   -6.1885 C.3     1  UNL11       0.0368
      2 O           2.5513    0.7729   -5.3890 O.3     1  UNL11      -0.3797
      3 C           2.0236    1.9585   -4.8877 C.3     1  UNL11       0.0612
      4 C           0.8150    1.7331   -4.0312 C.3     1  UNL11      -0.0107
      5 C           0.8530    2.7050   -2.8738 C.3     1  UNL11       0.0173
      6 N           2.0138    2.3907   -2.0760 N.am    1  UNL11      -0.2973
      7 C           1.8833    2.2338   -0.6823 C.2     1  UNL11       0.2494
      8 O           2.8744    1.9714    0.0574 O.2     1  UNL11      -0.2699
      9 C           0.5584    2.3809   -0.0848 C.ar    1  UNL11       0.0723
     10 C          -0.5728    2.0657   -0.8006 C.ar    1  UNL11      -0.0433
     11 C          -1.8581    2.1756   -0.2878 C.ar    1  UNL11      -0.0405
     12 C          -3.0289    1.8279   -1.1297 C.3     1  UNL11       0.0211
     13 C          -2.8121    2.0513   -2.5608 C.2     1  UNL11       0.1192
     14 N          -2.3101    1.0138   -3.2827 N.2     1  UNL11      -0.0073
     15 N          -2.1097    1.0266   -4.5707 N.am    1  UNL11      -0.0356
     16 C          -2.3992    2.1158   -5.3037 C.2     1  UNL11       0.4383
     17 O          -2.2311    2.1875   -6.5349 O.2     1  UNL11      -0.2116
     18 C          -2.9191    3.2275   -4.6331 C.ar    1  UNL11       0.1004
     19 C          -3.2270    4.3836   -5.3112 C.ar    1  UNL11      -0.0441
     20 C          -3.7199    5.4608   -4.6291 C.ar    1  UNL11      -0.0608
     21 C          -3.9233    5.4325   -3.2649 C.ar    1  UNL11      -0.0611
     22 C          -3.6111    4.2715   -2.6072 C.ar    1  UNL11      -0.0518
     23 C          -3.1176    3.1781   -3.2673 C.ar    1  UNL11       0.0192
     24 C          -1.9821    2.6221    0.9949 C.ar    1  UNL11      -0.0555
     25 C          -0.8663    2.9605    1.7798 C.ar    1  UNL11      -0.0254
     26 C           0.3846    2.8232    1.1959 C.ar    1  UNL11       0.1355
     27 F           1.4956    3.1339    1.9035 F       1  UNL11      -0.2047
     28 C           3.2691    2.2545   -2.7827 C.3     1  UNL11       0.0173
     29 C           3.0341    2.8021   -4.1917 C.3     1  UNL11      -0.0107
     30 H           0.7198   -0.2119   -5.6458 H       1  UNL11       0.0524
     31 H           2.1548   -0.8959   -6.4357 H       1  UNL11       0.0524
     32 H           1.4316    0.5810   -7.1355 H       1  UNL11       0.0524
     33 H           1.6749    2.5367   -5.7970 H       1  UNL11       0.0597
     34 H           0.8687    0.7071   -3.5630 H       1  UNL11       0.0305
     35 H          -0.1287    1.8252   -4.6119 H       1  UNL11       0.0305
     36 H           0.9005    3.7577   -3.2522 H       1  UNL11       0.0465
     37 H          -0.0742    2.5713   -2.2430 H       1  UNL11       0.0465
     38 H          -0.4568    1.7190   -1.8021 H       1  UNL11       0.0629
     39 H          -3.4152    0.8098   -0.8991 H       1  UNL11       0.0379
     40 H          -3.8621    2.5074   -0.7988 H       1  UNL11       0.0379
     41 H          -1.7136    0.1843   -5.0860 H       1  UNL11       0.4829
     42 H          -3.0740    4.4285   -6.3920 H       1  UNL11       0.0627
     43 H          -3.9753    6.3912   -5.1329 H       1  UNL11       0.0618
     44 H          -4.3209    6.3089   -2.7277 H       1  UNL11       0.0618
     45 H          -3.7425    4.2266   -1.5291 H       1  UNL11       0.0624
     46 H          -2.9332    2.7616    1.5023 H       1  UNL11       0.0621
     47 H          -0.9818    3.3112    2.7946 H       1  UNL11       0.0646
     48 H           3.9946    2.9675   -2.3063 H       1  UNL11       0.0465
     49 H           3.6677    1.2354   -2.8009 H       1  UNL11       0.0465
     50 H           2.7287    3.8609   -4.1225 H       1  UNL11       0.0305
     51 H           4.0090    2.6963   -4.7254 H       1  UNL11       0.0305
@<TRIPOS>BOND
     1     1     2    1
     2     1    30    1
     3     1    31    1
     4     1    32    1
     5     2     3    1
     6     3     4    1
     7     3    33    1
     8     4     5    1
     9     4    34    1
    10     4    35    1
    11     5     6    1
    12     5    36    1
    13     5    37    1
    14     6     7   am
    15     6    28    1
    16     7     8    2
    17     7     9    1
    18     9    10   ar
    19    10    11   ar
    20    10    38    1
    21    11    12    1
    22    11    24   ar
    23    12    13    1
    24    12    39    1
    25    12    40    1
    26    13    14    2
    27    14    15    1
    28    15    16   am
    29    15    41    1
    30    16    17    2
    31    16    18    1
    32    18    19   ar
    33    19    20   ar
    34    19    42    1
    35    20    21   ar
    36    20    43    1
    37    21    22   ar
    38    21    44    1
    39    22    23   ar
    40    22    45    1
    41    23    13    1
    42    23    18   ar
    43    24    25   ar
    44    24    46    1
    45    25    26   ar
    46    25    47    1
    47    26    27    1
    48    26     9   ar
    49    28    29    1
    50    28    48    1
    51    28    49    1
    52    29     3    1
    53    29    50    1
    54    29    51    1
@<TRIPOS>MOLECULE
*****
 51 54 0 0 0
SMALL
GASTEIGER

@<TRIPOS>ATOM
      1 C           4.1257   -1.6238   -1.3799 C.3     1  UNL11       0.0368
      2 O           3.5193   -2.0795   -2.5403 O.3     1  UNL11      -0.3797
      3 C           2.5198   -1.2292   -3.0025 C.3     1  UNL11       0.0612
      4 C           1.4242   -1.0313   -1.9997 C.3     1  UNL11      -0.0107
      5 C           0.9638    0.4073   -2.0625 C.3     1  UNL11       0.0173
      6 N           2.0726    1.2399   -1.6622 N.am    1  UNL11      -0.2973
      7 C           1.8833    2.2338   -0.6823 C.2     1  UNL11       0.2494
      8 O           2.8221    2.9945   -0.3105 O.2     1  UNL11      -0.2699
      9 C           0.5584    2.3809   -0.0848 C.ar    1  UNL11       0.0723
     10 C          -0.5728    2.0657   -0.8006 C.ar    1  UNL11      -0.0433
     11 C          -1.8581    2.1756   -0.2878 C.ar    1  UNL11      -0.0405
     12 C          -3.0289    1.8279   -1.1297 C.3     1  UNL11       0.0211
     13 C          -4.1693    1.3131   -0.3685 C.2     1  UNL11       0.1192
     14 N          -3.8965    0.6447    0.7839 N.2     1  UNL11      -0.0073
     15 N          -4.7924    0.1721    1.6045 N.am    1  UNL11      -0.0356
     16 C          -6.1049    0.3210    1.3541 C.2     1  UNL11       0.4383
     17 O          -7.0056   -0.1066    2.0992 O.2     1  UNL11      -0.2116
     18 C          -6.4679    0.9975    0.1851 C.ar    1  UNL11       0.1004
     19 C          -7.7900    1.1776   -0.1475 C.ar    1  UNL11      -0.0441
     20 C          -8.1172    1.8295   -1.3036 C.ar    1  UNL11      -0.0608
     21 C          -7.1569    2.3211   -2.1634 C.ar    1  UNL11      -0.0611
     22 C          -5.8452    2.1323   -1.8144 C.ar    1  UNL11      -0.0518
     23 C          -5.4911    1.4842   -0.6614 C.ar    1  UNL11       0.0192
     24 C          -1.9821    2.6221    0.9949 C.ar    1  UNL11      -0.0555
     25 C          -0.8663    2.9605    1.7798 C.ar    1  UNL11      -0.0254
     26 C           0.3846    2.8232    1.1959 C.ar    1  UNL11       0.1355
     27 F           1.4956    3.1339    1.9035 F       1  UNL11      -0.2047
     28 C           3.3400    0.9897   -2.3141 C.3     1  UNL11       0.0173
     29 C           3.0422    0.0728   -3.5019 C.3     1  UNL11      -0.0107
     30 H           4.6120   -0.6209   -1.5064 H       1  UNL11       0.0524
     31 H           4.9724   -2.3271   -1.1747 H       1  UNL11       0.0524
     32 H           3.4653   -1.6389   -0.5047 H       1  UNL11       0.0524
     33 H           2.0586   -1.7655   -3.8870 H       1  UNL11       0.0597
     34 H           1.8355   -1.1693   -0.9573 H       1  UNL11       0.0305
     35 H           0.5811   -1.7380   -2.1607 H       1  UNL11       0.0305
     36 H           0.6258    0.6621   -3.0991 H       1  UNL11       0.0465
     37 H           0.1102    0.5584   -1.3386 H       1  UNL11       0.0465
     38 H          -0.4568    1.7190   -1.8021 H       1  UNL11       0.0629
     39 H          -3.3017    2.6574   -1.8199 H       1  UNL11       0.0379
     40 H          -2.6821    1.0119   -1.8221 H       1  UNL11       0.0379
     41 H          -4.5222   -0.3442    2.4946 H       1  UNL11       0.4829
     42 H          -8.5674    0.7965    0.5188 H       1  UNL11       0.0627
     43 H          -9.1525    1.9909   -1.5981 H       1  UNL11       0.0618
     44 H          -7.4352    2.8443   -3.0927 H       1  UNL11       0.0618
     45 H          -5.0667    2.4915   -2.4824 H       1  UNL11       0.0624
     46 H          -2.9332    2.7616    1.5023 H       1  UNL11       0.0621
     47 H          -0.9818    3.3112    2.7946 H       1  UNL11       0.0646
     48 H           3.6747    1.9611   -2.7679 H       1  UNL11       0.0465
     49 H           4.1096    0.5720   -1.6576 H       1  UNL11       0.0465
     50 H           2.3370    0.5802   -4.1833 H       1  UNL11       0.0305
     51 H           4.0250   -0.1095   -3.9991 H       1  UNL11       0.0305
@<TRIPOS>BOND
     1     1     2    1
     2     1    30    1
     3     1    31    1
     4     1    32    1
     5     2     3    1
     6     3     4    1
     7     3    33    1
     8     4     5    1
     9     4    34    1
    10     4    35    1
    11     5     6    1
    12     5    36    1
    13     5    37    1
    14     6     7   am
    15     6    28    1
    16     7     8    2
    17     7     9    1
    18     9    10   ar
    19    10    11   ar
    20    10    38    1
    21    11    12    1
    22    11    24   ar
    23    12    13    1
    24    12    39    1
    25    12    40    1
    26    13    14    2
    27    14    15    1
    28    15    16   am
    29    15    41    1
    30    16    17    2
    31    16    18    1
    32    18    19   ar
    33    19    20   ar
    34    19    42    1
    35    20    21   ar
    36    20    43    1
    37    21    22   ar
    38    21    44    1
    39    22    23   ar
    40    22    45    1
    41    23    13    1
    42    23    18   ar
    43    24    25   ar
    44    24    46    1
    45    25    26   ar
    46    25    47    1
    47    26    27    1
    48    26     9   ar
    49    28    29    1
    50    28    48    1
    51    28    49    1
    52    29     3    1
    53    29    50    1
    54    29    51    1
@<TRIPOS>MOLECULE
*****
 51 54 0 0 0
SMALL
GASTEIGER

@<TRIPOS>ATOM
      1 C           6.2844    0.6866    2.9591 C.3     1  UNL11       0.0368
      2 O           5.2604    1.6202    2.9166 O.3     1  UNL11      -0.3797
      3 C           5.3011    2.4218    1.7802 C.3     1  UNL11       0.0612
      4 C           5.1716    1.6312    0.5140 C.3     1  UNL11      -0.0107
      5 C           4.3338    2.4201   -0.4665 C.3     1  UNL11       0.0173
      6 N           3.0119    2.5554    0.0967 N.am    1  UNL11      -0.2973
      7 C           1.8833    2.2338   -0.6823 C.2     1  UNL11       0.2494
      8 O           1.9871    1.8250   -1.8741 O.2     1  UNL11      -0.2699
      9 C           0.5584    2.3809   -0.0848 C.ar    1  UNL11       0.0723
     10 C          -0.5728    2.0657   -0.8006 C.ar    1  UNL11      -0.0433
     11 C          -1.8581    2.1756   -0.2878 C.ar    1  UNL11      -0.0405
     12 C          -3.0289    1.8279   -1.1297 C.3     1  UNL11       0.0211
     13 C          -3.0356    0.4351   -1.5826 C.2     1  UNL11       0.1192
     14 N          -1.9982   -0.3512   -1.1892 N.2     1  UNL11      -0.0073
     15 N          -1.8789   -1.6215   -1.4571 N.am    1  UNL11      -0.0356
     16 C          -2.8163   -2.2671   -2.1726 C.2     1  UNL11       0.4383
     17 O          -2.7585   -3.4770   -2.4589 O.2     1  UNL11      -0.2116
     18 C          -3.9163   -1.5259   -2.6161 C.ar    1  UNL11       0.1004
     19 C          -4.9096   -2.1118   -3.3651 C.ar    1  UNL11      -0.0441
     20 C          -5.9665   -1.3610   -3.7985 C.ar    1  UNL11      -0.0608
     21 C          -6.0765   -0.0166   -3.5092 C.ar    1  UNL11      -0.0611
     22 C          -5.0771    0.5489   -2.7613 C.ar    1  UNL11      -0.0518
     23 C          -4.0089   -0.1815   -2.3138 C.ar    1  UNL11       0.0192
     24 C          -1.9821    2.6221    0.9949 C.ar    1  UNL11      -0.0555
     25 C          -0.8663    2.9605    1.7798 C.ar    1  UNL11      -0.0254
     26 C           0.3846    2.8232    1.1959 C.ar    1  UNL11       0.1355
     27 F           1.4956    3.1339    1.9035 F       1  UNL11      -0.2047
     28 C           2.9339    3.0262    1.4627 C.3     1  UNL11       0.0173
     29 C           4.3269    3.5472    1.8212 C.3     1  UNL11      -0.0107
     30 H           6.2685   -0.0186    2.0869 H       1  UNL11       0.0524
     31 H           6.0801    0.0414    3.8510 H       1  UNL11       0.0524
     32 H           7.2778    1.1308    3.0943 H       1  UNL11       0.0524
     33 H           6.3380    2.8775    1.7747 H       1  UNL11       0.0597
     34 H           4.5871    0.6865    0.7156 H       1  UNL11       0.0305
     35 H           6.1631    1.3677    0.0855 H       1  UNL11       0.0305
     36 H           4.7946    3.4236   -0.6516 H       1  UNL11       0.0465
     37 H           4.2628    1.8513   -1.4396 H       1  UNL11       0.0465
     38 H          -0.4568    1.7190   -1.8021 H       1  UNL11       0.0629
     39 H          -3.9861    2.1381   -0.6538 H       1  UNL11       0.0379
     40 H          -2.9623    2.4845   -2.0406 H       1  UNL11       0.0379
     41 H          -1.0440   -2.1901   -1.1233 H       1  UNL11       0.4829
     42 H          -4.8431   -3.1753   -3.6062 H       1  UNL11       0.0627
     43 H          -6.7710   -1.7912   -4.3922 H       1  UNL11       0.0618
     44 H          -6.9341    0.5768   -3.8658 H       1  UNL11       0.0618
     45 H          -5.1271    1.6107   -2.5344 H       1  UNL11       0.0624
     46 H          -2.9332    2.7616    1.5023 H       1  UNL11       0.0621
     47 H          -0.9818    3.3112    2.7946 H       1  UNL11       0.0646
     48 H           2.2710    3.9329    1.4615 H       1  UNL11       0.0465
     49 H           2.5806    2.2769    2.1780 H       1  UNL11       0.0465
     50 H           4.5954    4.3669    1.1320 H       1  UNL11       0.0305
     51 H           4.2535    3.9113    2.8739 H       1  UNL11       0.0305
@<TRIPOS>BOND
     1     1     2    1
     2     1    30    1
     3     1    31    1
     4     1    32    1
     5     2     3    1
     6     3     4    1
     7     3    33    1
     8     4     5    1
     9     4    34    1
    10     4    35    1
    11     5     6    1
    12     5    36    1
    13     5    37    1
    14     6     7   am
    15     6    28    1
    16     7     8    2
    17     7     9    1
    18     9    10   ar
    19    10    11   ar
    20    10    38    1
    21    11    12    1
    22    11    24   ar
    23    12    13    1
    24    12    39    1
    25    12    40    1
    26    13    14    2
    27    14    15    1
    28    15    16   am
    29    15    41    1
    30    16    17    2
    31    16    18    1
    32    18    19   ar
    33    19    20   ar
    34    19    42    1
    35    20    21   ar
    36    20    43    1
    37    21    22   ar
    38    21    44    1
    39    22    23   ar
    40    22    45    1
    41    23    13    1
    42    23    18   ar
    43    24    25   ar
    44    24    46    1
    45    25    26   ar
    46    25    47    1
    47    26    27    1
    48    26     9   ar
    49    28    29    1
    50    28    48    1
    51    28    49    1
    52    29     3    1
    53    29    50    1
    54    29    51    1
@<TRIPOS>MOLECULE
*****
 51 54 0 0 0
SMALL
GASTEIGER

@<TRIPOS>ATOM
      1 C           2.0713    0.4918   -6.3350 C.3     1  UNL11       0.0368
      2 O           1.4515    0.1058   -5.1565 O.3     1  UNL11      -0.3797
      3 C           2.3512   -0.1524   -4.1273 C.3     1  UNL11       0.0612
      4 C           3.1751    1.0468   -3.7693 C.3     1  UNL11      -0.0107
      5 C           3.3705    1.0708   -2.2704 C.3     1  UNL11       0.0173
      6 N           2.0726    1.2399   -1.6622 N.am    1  UNL11      -0.2973
      7 C           1.8833    2.2338   -0.6823 C.2     1  UNL11       0.2494
      8 O           2.8221    2.9945   -0.3105 O.2     1  UNL11      -0.2699
      9 C           0.5584    2.3809   -0.0848 C.ar    1  UNL11       0.0723
     10 C          -0.5728    2.0657   -0.8006 C.ar    1  UNL11      -0.0433
     11 C          -1.8581    2.1756   -0.2878 C.ar    1  UNL11      -0.0405
     12 C          -3.0289    1.8279   -1.1297 C.3     1  UNL11       0.0211
     13 C          -3.9600    2.9402   -1.3316 C.2     1  UNL11       0.1192
     14 N          -3.6500    4.1252   -0.7407 N.2     1  UNL11      -0.0073
     15 N          -4.3388    5.2251   -0.8639 N.am    1  UNL11      -0.0356
     16 C          -5.4517    5.2622   -1.6173 C.2     1  UNL11       0.4383
     17 O          -6.1492    6.2811   -1.7737 O.2     1  UNL11      -0.2116
     18 C          -5.8388    4.0809   -2.2582 C.ar    1  UNL11       0.1004
     19 C          -6.9728    4.0352   -3.0347 C.ar    1  UNL11      -0.0441
     20 C          -7.3366    2.8639   -3.6379 C.ar    1  UNL11      -0.0608
     21 C          -6.5986    1.7071   -3.4951 C.ar    1  UNL11      -0.0611
     22 C          -5.4717    1.7729   -2.7180 C.ar    1  UNL11      -0.0518
     23 C          -5.0848    2.9341   -2.1043 C.ar    1  UNL11       0.0192
     24 C          -1.9821    2.6221    0.9949 C.ar    1  UNL11      -0.0555
     25 C          -0.8663    2.9605    1.7798 C.ar    1  UNL11      -0.0254
     26 C           0.3846    2.8232    1.1959 C.ar    1  UNL11       0.1355
     27 F           1.4956    3.1339    1.9035 F       1  UNL11      -0.2047
     28 C           1.0241    0.3506   -2.1134 C.3     1  UNL11       0.0173
     29 C           1.7097   -0.7508   -2.9240 C.3     1  UNL11      -0.0107
     30 H           2.6821    1.4258   -6.2213 H       1  UNL11       0.0524
     31 H           1.2492    0.7730   -7.0411 H       1  UNL11       0.0524
     32 H           2.6523   -0.3091   -6.8078 H       1  UNL11       0.0524
     33 H           3.0660   -0.9257   -4.5442 H       1  UNL11       0.0597
     34 H           2.5996    1.9875   -4.0117 H       1  UNL11       0.0305
     35 H           4.1471    1.0591   -4.3088 H       1  UNL11       0.0305
     36 H           3.8530    0.1207   -1.9265 H       1  UNL11       0.0465
     37 H           4.0241    1.9489   -1.9927 H       1  UNL11       0.0465
     38 H          -0.4568    1.7190   -1.8021 H       1  UNL11       0.0629
     39 H          -2.7223    1.3356   -2.0797 H       1  UNL11       0.0379
     40 H          -3.5784    1.0165   -0.5775 H       1  UNL11       0.0379
     41 H          -4.0498    6.1263   -0.3779 H       1  UNL11       0.4829
     42 H          -7.5726    4.9395   -3.1618 H       1  UNL11       0.0627
     43 H          -8.2268    2.7910   -4.2600 H       1  UNL11       0.0618
     44 H          -6.9042    0.7693   -3.9869 H       1  UNL11       0.0618
     45 H          -4.8812    0.8722   -2.5714 H       1  UNL11       0.0624
     46 H          -2.9332    2.7616    1.5023 H       1  UNL11       0.0621
     47 H          -0.9818    3.3112    2.7946 H       1  UNL11       0.0646
     48 H           0.6144   -0.1644   -1.2032 H       1  UNL11       0.0465
     49 H           0.2295    0.8432   -2.6824 H       1  UNL11       0.0465
     50 H           2.4308   -1.2809   -2.2774 H       1  UNL11       0.0305
     51 H           0.8928   -1.4322   -3.2626 H       1  UNL11       0.0305
@<TRIPOS>BOND
     1     1     2    1
     2     1    30    1
     3     1    31    1
     4     1    32    1
     5     2     3    1
     6     3     4    1
     7     3    33    1
     8     4     5    1
     9     4    34    1
    10     4    35    1
    11     5     6    1
    12     5    36    1
    13     5    37    1
    14     6     7   am
    15     6    28    1
    16     7     8    2
    17     7     9    1
    18     9    10   ar
    19    10    11   ar
    20    10    38    1
    21    11    12    1
    22    11    24   ar
    23    12    13    1
    24    12    39    1
    25    12    40    1
    26    13    14    2
    27    14    15    1
    28    15    16   am
    29    15    41    1
    30    16    17    2
    31    16    18    1
    32    18    19   ar
    33    19    20   ar
    34    19    42    1
    35    20    21   ar
    36    20    43    1
    37    21    22   ar
    38    21    44    1
    39    22    23   ar
    40    22    45    1
    41    23    13    1
    42    23    18   ar
    43    24    25   ar
    44    24    46    1
    45    25    26   ar
    46    25    47    1
    47    26    27    1
    48    26     9   ar
    49    28    29    1
    50    28    48    1
    51    28    49    1
    52    29     3    1
    53    29    50    1
    54    29    51    1
@<TRIPOS>MOLECULE
*****
 51 54 0 0 0
SMALL
GASTEIGER

@<TRIPOS>ATOM
      1 C           7.1331    4.6385    0.5840 C.3     1  UNL11       0.0368
      2 O           5.7933    4.9401    0.7740 O.3     1  UNL11      -0.3797
      3 C           5.0997    3.9386    1.4459 C.3     1  UNL11       0.0612
      4 C           3.6497    4.2680    1.6305 C.3     1  UNL11      -0.0107
      5 C           2.8395    3.0034    1.4577 C.3     1  UNL11       0.0173
      6 N           3.0119    2.5554    0.0967 N.am    1  UNL11      -0.2973
      7 C           1.8833    2.2338   -0.6823 C.2     1  UNL11       0.2494
      8 O           1.9871    1.8250   -1.8741 O.2     1  UNL11      -0.2699
      9 C           0.5584    2.3809   -0.0848 C.ar    1  UNL11       0.0723
     10 C          -0.5728    2.0657   -0.8006 C.ar    1  UNL11      -0.0433
     11 C          -1.8581    2.1756   -0.2878 C.ar    1  UNL11      -0.0405
     12 C          -3.0289    1.8279   -1.1297 C.3     1  UNL11       0.0211
     13 C          -3.1300    2.6236   -2.3551 C.2     1  UNL11       0.1192
     14 N          -3.8455    3.7782   -2.2892 N.2     1  UNL11      -0.0073
     15 N          -3.9881    4.6267   -3.2685 N.am    1  UNL11      -0.0356
     16 C          -3.4110    4.4062   -4.4626 C.2     1  UNL11       0.4383
     17 O          -3.5100    5.1787   -5.4335 O.2     1  UNL11      -0.2116
     18 C          -2.6579    3.2371   -4.6113 C.ar    1  UNL11       0.1004
     19 C          -2.0487    2.9342   -5.8063 C.ar    1  UNL11      -0.0441
     20 C          -1.3306    1.7776   -5.9291 C.ar    1  UNL11      -0.0608
     21 C          -1.1918    0.8880   -4.8839 C.ar    1  UNL11      -0.0611
     22 C          -1.8057    1.2077   -3.7011 C.ar    1  UNL11      -0.0518
     23 C          -2.5292    2.3606   -3.5518 C.ar    1  UNL11       0.0192
     24 C          -1.9821    2.6221    0.9949 C.ar    1  UNL11      -0.0555
     25 C          -0.8663    2.9605    1.7798 C.ar    1  UNL11      -0.0254
     26 C           0.3846    2.8232    1.1959 C.ar    1  UNL11       0.1355
     27 F           1.4956    3.1339    1.9035 F       1  UNL11      -0.2047
     28 C           4.3720    2.4641   -0.3888 C.3     1  UNL11       0.0173
     29 C           5.2785    2.5916    0.8368 C.3     1  UNL11      -0.0107
     30 H           7.6851    4.4777    1.5472 H       1  UNL11       0.0524
     31 H           7.5980    5.5545    0.1387 H       1  UNL11       0.0524
     32 H           7.3016    3.8104   -0.1148 H       1  UNL11       0.0524
     33 H           5.5592    3.9012    2.4804 H       1  UNL11       0.0597
     34 H           3.3097    4.9572    0.8033 H       1  UNL11       0.0305
     35 H           3.4547    4.7475    2.6144 H       1  UNL11       0.0305
     36 H           3.1809    2.2214    2.1828 H       1  UNL11       0.0465
     37 H           1.7477    3.2319    1.6344 H       1  UNL11       0.0465
     38 H          -0.4568    1.7190   -1.8021 H       1  UNL11       0.0629
     39 H          -3.0947    0.7319   -1.3126 H       1  UNL11       0.0379
     40 H          -3.9375    2.0458   -0.5033 H       1  UNL11       0.0379
     41 H          -4.5606    5.5170   -3.1616 H       1  UNL11       0.4829
     42 H          -2.1452    3.6244   -6.6477 H       1  UNL11       0.0627
     43 H          -0.8345    1.5061   -6.8591 H       1  UNL11       0.0618
     44 H          -0.6103   -0.0414   -4.9973 H       1  UNL11       0.0618
     45 H          -1.7300    0.5161   -2.8660 H       1  UNL11       0.0624
     46 H          -2.9332    2.7616    1.5023 H       1  UNL11       0.0621
     47 H          -0.9818    3.3112    2.7946 H       1  UNL11       0.0646
     48 H           4.5205    1.4136   -0.7577 H       1  UNL11       0.0465
     49 H           4.6243    3.1960   -1.1624 H       1  UNL11       0.0465
     50 H           5.0514    1.7729    1.5420 H       1  UNL11       0.0305
     51 H           6.3234    2.5153    0.4513 H       1  UNL11       0.0305
@<TRIPOS>BOND
     1     1     2    1
     2     1    30    1
     3     1    31    1
     4     1    32    1
     5     2     3    1
     6     3     4    1
     7     3    33    1
     8     4     5    1
     9     4    34    1
    10     4    35    1
    11     5     6    1
    12     5    36    1
    13     5    37    1
    14     6     7   am
    15     6    28    1
    16     7     8    2
    17     7     9    1
    18     9    10   ar
    19    10    11   ar
    20    10    38    1
    21    11    12    1
    22    11    24   ar
    23    12    13    1
    24    12    39    1
    25    12    40    1
    26    13    14    2
    27    14    15    1
    28    15    16   am
    29    15    41    1
    30    16    17    2
    31    16    18    1
    32    18    19   ar
    33    19    20   ar
    34    19    42    1
    35    20    21   ar
    36    20    43    1
    37    21    22   ar
    38    21    44    1
    39    22    23   ar
    40    22    45    1
    41    23    13    1
    42    23    18   ar
    43    24    25   ar
    44    24    46    1
    45    25    26   ar
    46    25    47    1
    47    26    27    1
    48    26     9   ar
    49    28    29    1
    50    28    48    1
    51    28    49    1
    52    29     3    1
    53    29    50    1
    54    29    51    1
@<TRIPOS>MOLECULE
*****
 51 54 0 0 0
SMALL
GASTEIGER

@<TRIPOS>ATOM
      1 C           5.7512    4.0000    0.8397 C.3     1  UNL11       0.0368
      2 O           6.0744    3.1061    1.8488 O.3     1  UNL11      -0.3797
      3 C           5.1402    2.0852    1.9919 C.3     1  UNL11       0.0612
      4 C           3.7684    2.6008    2.3041 C.3     1  UNL11      -0.0107
      5 C           2.7533    1.7502    1.5751 C.3     1  UNL11       0.0173
      6 N           2.9703    1.9266    0.1592 N.am    1  UNL11      -0.2973
      7 C           1.8833    2.2338   -0.6823 C.2     1  UNL11       0.2494
      8 O           2.0241    2.3840   -1.9297 O.2     1  UNL11      -0.2699
      9 C           0.5584    2.3809   -0.0848 C.ar    1  UNL11       0.0723
     10 C          -0.5728    2.0657   -0.8006 C.ar    1  UNL11      -0.0433
     11 C          -1.8581    2.1756   -0.2878 C.ar    1  UNL11      -0.0405
     12 C          -3.0289    1.8279   -1.1297 C.3     1  UNL11       0.0211
     13 C          -3.1300    2.6236   -2.3551 C.2     1  UNL11       0.1192
     14 N          -4.1870    2.3731   -3.1733 N.2     1  UNL11      -0.0073
     15 N          -4.4549    3.0251   -4.2699 N.am    1  UNL11      -0.0356
     16 C          -3.6681    4.0338   -4.6832 C.2     1  UNL11       0.4383
     17 O          -3.8728    4.6929   -5.7190 O.2     1  UNL11      -0.2116
     18 C          -2.5573    4.3524   -3.8954 C.ar    1  UNL11       0.1004
     19 C          -1.6973    5.3620   -4.2590 C.ar    1  UNL11      -0.0441
     20 C          -0.6107    5.6431   -3.4787 C.ar    1  UNL11      -0.0608
     21 C          -0.3391    4.9416   -2.3223 C.ar    1  UNL11      -0.0611
     22 C          -1.2079    3.9398   -1.9766 C.ar    1  UNL11      -0.0518
     23 C          -2.3042    3.6395   -2.7400 C.ar    1  UNL11       0.0192
     24 C          -1.9821    2.6221    0.9949 C.ar    1  UNL11      -0.0555
     25 C          -0.8663    2.9605    1.7798 C.ar    1  UNL11      -0.0254
     26 C           0.3846    2.8232    1.1959 C.ar    1  UNL11       0.1355
     27 F           1.4956    3.1339    1.9035 F       1  UNL11      -0.2047
     28 C           4.3291    1.7709   -0.3132 C.3     1  UNL11       0.0173
     29 C           5.1183    1.1443    0.8379 C.3     1  UNL11      -0.0107
     30 H           5.6747    3.5123   -0.1675 H       1  UNL11       0.0524
     31 H           6.6216    4.6988    0.7526 H       1  UNL11       0.0524
     32 H           4.8632    4.6053    1.0577 H       1  UNL11       0.0524
     33 H           5.4802    1.4956    2.8972 H       1  UNL11       0.0597
     34 H           3.6489    3.6402    1.8797 H       1  UNL11       0.0305
     35 H           3.5724    2.6239    3.3983 H       1  UNL11       0.0305
     36 H           2.8666    0.6750    1.8664 H       1  UNL11       0.0465
     37 H           1.7130    2.1048    1.8348 H       1  UNL11       0.0465
     38 H          -0.4568    1.7190   -1.8021 H       1  UNL11       0.0629
     39 H          -3.0947    0.7319   -1.3126 H       1  UNL11       0.0379
     40 H          -3.9375    2.0458   -0.5033 H       1  UNL11       0.0379
     41 H          -5.2978    2.7865   -4.8736 H       1  UNL11       0.4829
     42 H          -1.8930    5.9309   -5.1709 H       1  UNL11       0.0627
     43 H           0.0903    6.4353   -3.7348 H       1  UNL11       0.0618
     44 H           0.5412    5.1786   -1.7030 H       1  UNL11       0.0618
     45 H          -1.0084    3.3569   -1.0810 H       1  UNL11       0.0624
     46 H          -2.9332    2.7616    1.5023 H       1  UNL11       0.0621
     47 H          -0.9818    3.3112    2.7946 H       1  UNL11       0.0646
     48 H           4.3105    0.9882   -1.1185 H       1  UNL11       0.0465
     49 H           4.7910    2.6968   -0.6698 H       1  UNL11       0.0465
     50 H           4.6713    0.1679    1.0943 H       1  UNL11       0.0305
     51 H           6.1624    1.0249    0.4610 H       1  UNL11       0.0305
@<TRIPOS>BOND
     1     1     2    1
     2     1    30    1
     3     1    31    1
     4     1    32    1
     5     2     3    1
     6     3     4    1
     7     3    33    1
     8     4     5    1
     9     4    34    1
    10     4    35    1
    11     5     6    1
    12     5    36    1
    13     5    37    1
    14     6     7   am
    15     6    28    1
    16     7     8    2
    17     7     9    1
    18     9    10   ar
    19    10    11   ar
    20    10    38    1
    21    11    12    1
    22    11    24   ar
    23    12    13    1
    24    12    39    1
    25    12    40    1
    26    13    14    2
    27    14    15    1
    28    15    16   am
    29    15    41    1
    30    16    17    2
    31    16    18    1
    32    18    19   ar
    33    19    20   ar
    34    19    42    1
    35    20    21   ar
    36    20    43    1
    37    21    22   ar
    38    21    44    1
    39    22    23   ar
    40    22    45    1
    41    23    13    1
    42    23    18   ar
    43    24    25   ar
    44    24    46    1
    45    25    26   ar
    46    25    47    1
    47    26    27    1
    48    26     9   ar
    49    28    29    1
    50    28    48    1
    51    28    49    1
    52    29     3    1
    53    29    50    1
    54    29    51    1
@<TRIPOS>MOLECULE
*****
 51 54 0 0 0
SMALL
GASTEIGER

@<TRIPOS>ATOM
      1 C           1.6581    0.0766   -6.1885 C.3     1  UNL11       0.0368
      2 O           2.5513    0.7729   -5.3890 O.3     1  UNL11      -0.3797
      3 C           2.0236    1.9585   -4.8877 C.3     1  UNL11       0.0612
      4 C           0.8150    1.7331   -4.0312 C.3     1  UNL11      -0.0107
      5 C           0.8530    2.7050   -2.8738 C.3     1  UNL11       0.0173
      6 N           2.0138    2.3907   -2.0760 N.am    1  UNL11      -0.2973
      7 C           1.8833    2.2338   -0.6823 C.2     1  UNL11       0.2494
      8 O           2.8744    1.9714    0.0574 O.2     1  UNL11      -0.2699
      9 C           0.5584    2.3809   -0.0848 C.ar    1  UNL11       0.0723
     10 C          -0.5728    2.0657   -0.8006 C.ar    1  UNL11      -0.0433
     11 C          -1.8581    2.1756   -0.2878 C.ar    1  UNL11      -0.0405
     12 C          -3.0289    1.8279   -1.1297 C.3     1  UNL11       0.0211
     13 C          -3.4340    0.4244   -1.0241 C.2     1  UNL11       0.1192
     14 N          -2.4610   -0.4840   -0.7462 N.2     1  UNL11      -0.0073
     15 N          -2.6585   -1.7598   -0.5652 N.am    1  UNL11      -0.0356
     16 C          -3.8934   -2.2855   -0.6450 C.2     1  UNL11       0.4383
     17 O          -4.1444   -3.4934   -0.4810 O.2     1  UNL11      -0.2116
     18 C          -4.9501   -1.4146   -0.9295 C.ar    1  UNL11       0.1004
     19 C          -6.2398   -1.8786   -1.0412 C.ar    1  UNL11      -0.0441
     20 C          -7.2521   -1.0082   -1.3347 C.ar    1  UNL11      -0.0608
     21 C          -7.0262    0.3391   -1.5267 C.ar    1  UNL11      -0.0611
     22 C          -5.7346    0.7822   -1.4107 C.ar    1  UNL11      -0.0518
     23 C          -4.7032   -0.0686   -1.1159 C.ar    1  UNL11       0.0192
     24 C          -1.9821    2.6221    0.9949 C.ar    1  UNL11      -0.0555
     25 C          -0.8663    2.9605    1.7798 C.ar    1  UNL11      -0.0254
     26 C           0.3846    2.8232    1.1959 C.ar    1  UNL11       0.1355
     27 F           1.4956    3.1339    1.9035 F       1  UNL11      -0.2047
     28 C           3.2691    2.2545   -2.7827 C.3     1  UNL11       0.0173
     29 C           3.0341    2.8021   -4.1917 C.3     1  UNL11      -0.0107
     30 H           0.7198   -0.2119   -5.6458 H       1  UNL11       0.0524
     31 H           2.1548   -0.8959   -6.4357 H       1  UNL11       0.0524
     32 H           1.4316    0.5810   -7.1355 H       1  UNL11       0.0524
     33 H           1.6749    2.5367   -5.7970 H       1  UNL11       0.0597
     34 H           0.8687    0.7071   -3.5630 H       1  UNL11       0.0305
     35 H          -0.1287    1.8252   -4.6119 H       1  UNL11       0.0305
     36 H           0.9005    3.7577   -3.2522 H       1  UNL11       0.0465
     37 H          -0.0742    2.5713   -2.2430 H       1  UNL11       0.0465
     38 H          -0.4568    1.7190   -1.8021 H       1  UNL11       0.0629
     39 H          -3.8715    2.5394   -0.9788 H       1  UNL11       0.0379
     40 H          -2.7131    2.0147   -2.1931 H       1  UNL11       0.0379
     41 H          -1.8585   -2.4271   -0.3495 H       1  UNL11       0.4829
     42 H          -6.4420   -2.9420   -0.8930 H       1  UNL11       0.0627
     43 H          -8.2845   -1.3397   -1.4297 H       1  UNL11       0.0618
     44 H          -7.8520    1.0294   -1.7635 H       1  UNL11       0.0618
     45 H          -5.5236    1.8356   -1.5761 H       1  UNL11       0.0624
     46 H          -2.9332    2.7616    1.5023 H       1  UNL11       0.0621
     47 H          -0.9818    3.3112    2.7946 H       1  UNL11       0.0646
     48 H           3.9946    2.9675   -2.3063 H       1  UNL11       0.0465
     49 H           3.6677    1.2354   -2.8009 H       1  UNL11       0.0465
     50 H           2.7287    3.8609   -4.1225 H       1  UNL11       0.0305
     51 H           4.0090    2.6963   -4.7254 H       1  UNL11       0.0305
@<TRIPOS>BOND
     1     1     2    1
     2     1    30    1
     3     1    31    1
     4     1    32    1
     5     2     3    1
     6     3     4    1
     7     3    33    1
     8     4     5    1
     9     4    34    1
    10     4    35    1
    11     5     6    1
    12     5    36    1
    13     5    37    1
    14     6     7   am
    15     6    28    1
    16     7     8    2
    17     7     9    1
    18     9    10   ar
    19    10    11   ar
    20    10    38    1
    21    11    12    1
    22    11    24   ar
    23    12    13    1
    24    12    39    1
    25    12    40    1
    26    13    14    2
    27    14    15    1
    28    15    16   am
    29    15    41    1
    30    16    17    2
    31    16    18    1
    32    18    19   ar
    33    19    20   ar
    34    19    42    1
    35    20    21   ar
    36    20    43    1
    37    21    22   ar
    38    21    44    1
    39    22    23   ar
    40    22    45    1
    41    23    13    1
    42    23    18   ar
    43    24    25   ar
    44    24    46    1
    45    25    26   ar
    46    25    47    1
    47    26    27    1
    48    26     9   ar
    49    28    29    1
    50    28    48    1
    51    28    49    1
    52    29     3    1
    53    29    50    1
    54    29    51    1
@<TRIPOS>MOLECULE
*****
 51 54 0 0 0
SMALL
GASTEIGER

@<TRIPOS>ATOM
      1 C           0.6730   -0.9932   -5.4852 C.3     1  UNL11       0.0368
      2 O           1.4515    0.1058   -5.1565 O.3     1  UNL11      -0.3797
      3 C           2.3512   -0.1524   -4.1273 C.3     1  UNL11       0.0612
      4 C           3.1751    1.0468   -3.7693 C.3     1  UNL11      -0.0107
      5 C           3.3705    1.0708   -2.2704 C.3     1  UNL11       0.0173
      6 N           2.0726    1.2399   -1.6622 N.am    1  UNL11      -0.2973
      7 C           1.8833    2.2338   -0.6823 C.2     1  UNL11       0.2494
      8 O           2.8221    2.9945   -0.3105 O.2     1  UNL11      -0.2699
      9 C           0.5584    2.3809   -0.0848 C.ar    1  UNL11       0.0723
     10 C          -0.5728    2.0657   -0.8006 C.ar    1  UNL11      -0.0433
     11 C          -1.8581    2.1756   -0.2878 C.ar    1  UNL11      -0.0405
     12 C          -3.0289    1.8279   -1.1297 C.3     1  UNL11       0.0211
     13 C          -3.5633    2.9591   -1.8912 C.2     1  UNL11       0.1192
     14 N          -2.7292    3.5571   -2.7834 N.2     1  UNL11      -0.0073
     15 N          -3.0610    4.5366   -3.5770 N.am    1  UNL11      -0.0356
     16 C          -4.3062    5.0433   -3.5652 C.2     1  UNL11       0.4383
     17 O          -4.6821    5.9759   -4.2988 O.2     1  UNL11      -0.2116
     18 C          -5.2246    4.4820   -2.6722 C.ar    1  UNL11       0.1004
     19 C          -6.5134    4.9549   -2.5911 C.ar    1  UNL11      -0.0441
     20 C          -7.3867    4.3981   -1.6991 C.ar    1  UNL11      -0.0608
     21 C          -7.0192    3.3638   -0.8635 C.ar    1  UNL11      -0.0611
     22 C          -5.7311    2.9061   -0.9596 C.ar    1  UNL11      -0.0518
     23 C          -4.8375    3.4455   -1.8457 C.ar    1  UNL11       0.0192
     24 C          -1.9821    2.6221    0.9949 C.ar    1  UNL11      -0.0555
     25 C          -0.8663    2.9605    1.7798 C.ar    1  UNL11      -0.0254
     26 C           0.3846    2.8232    1.1959 C.ar    1  UNL11       0.1355
     27 F           1.4956    3.1339    1.9035 F       1  UNL11      -0.2047
     28 C           1.0241    0.3506   -2.1134 C.3     1  UNL11       0.0173
     29 C           1.7097   -0.7508   -2.9240 C.3     1  UNL11      -0.0107
     30 H           1.2808   -1.8729   -5.8241 H       1  UNL11       0.0524
     31 H           0.0776   -0.6946   -6.3852 H       1  UNL11       0.0524
     32 H          -0.0372   -1.2784   -4.7000 H       1  UNL11       0.0524
     33 H           3.0660   -0.9257   -4.5442 H       1  UNL11       0.0597
     34 H           2.5996    1.9875   -4.0117 H       1  UNL11       0.0305
     35 H           4.1471    1.0591   -4.3088 H       1  UNL11       0.0305
     36 H           3.8530    0.1207   -1.9265 H       1  UNL11       0.0465
     37 H           4.0241    1.9489   -1.9927 H       1  UNL11       0.0465
     38 H          -0.4568    1.7190   -1.8021 H       1  UNL11       0.0629
     39 H          -2.8332    0.9304   -1.7583 H       1  UNL11       0.0379
     40 H          -3.8304    1.4830   -0.4198 H       1  UNL11       0.0379
     41 H          -2.3663    4.9682   -4.2576 H       1  UNL11       0.4829
     42 H          -6.8264    5.7735   -3.2435 H       1  UNL11       0.0627
     43 H          -8.4140    4.7461   -1.6082 H       1  UNL11       0.0618
     44 H          -7.7338    2.9248   -0.1484 H       1  UNL11       0.0618
     45 H          -5.4074    2.1051   -0.2999 H       1  UNL11       0.0624
     46 H          -2.9332    2.7616    1.5023 H       1  UNL11       0.0621
     47 H          -0.9818    3.3112    2.7946 H       1  UNL11       0.0646
     48 H           0.6144   -0.1644   -1.2032 H       1  UNL11       0.0465
     49 H           0.2295    0.8432   -2.6824 H       1  UNL11       0.0465
     50 H           2.4308   -1.2809   -2.2774 H       1  UNL11       0.0305
     51 H           0.8928   -1.4322   -3.2626 H       1  UNL11       0.0305
@<TRIPOS>BOND
     1     1     2    1
     2     1    30    1
     3     1    31    1
     4     1    32    1
     5     2     3    1
     6     3     4    1
     7     3    33    1
     8     4     5    1
     9     4    34    1
    10     4    35    1
    11     5     6    1
    12     5    36    1
    13     5    37    1
    14     6     7   am
    15     6    28    1
    16     7     8    2
    17     7     9    1
    18     9    10   ar
    19    10    11   ar
    20    10    38    1
    21    11    12    1
    22    11    24   ar
    23    12    13    1
    24    12    39    1
    25    12    40    1
    26    13    14    2
    27    14    15    1
    28    15    16   am
    29    15    41    1
    30    16    17    2
    31    16    18    1
    32    18    19   ar
    33    19    20   ar
    34    19    42    1
    35    20    21   ar
    36    20    43    1
    37    21    22   ar
    38    21    44    1
    39    22    23   ar
    40    22    45    1
    41    23    13    1
    42    23    18   ar
    43    24    25   ar
    44    24    46    1
    45    25    26   ar
    46    25    47    1
    47    26    27    1
    48    26     9   ar
    49    28    29    1
    50    28    48    1
    51    28    49    1
    52    29     3    1
    53    29    50    1
    54    29    51    1
