@<TRIPOS>MOLECULE
*****
 44 46 0 0 0
SMALL
GASTEIGER

@<TRIPOS>ATOM
      1 O           0.2063   -0.9862   -3.9326 O.2     1  UNL11      -0.2687
      2 C           0.5796   -1.3768   -2.7901 C.2     1  UNL11       0.2602
      3 N           1.6800   -0.6887   -2.2177 N.am    1  UNL11      -0.2301
      4 N           2.2251   -1.0082   -0.9674 N.am    1  UNL11      -0.2301
      5 C           1.3651   -1.5585    0.0131 C.2     1  UNL11       0.2602
      6 O           1.8532   -1.8301    1.1381 O.2     1  UNL11      -0.2687
      7 C          -0.0424   -1.8272   -0.2025 C.ar    1  UNL11       0.0400
      8 C          -0.6723   -2.8587    0.4564 C.ar    1  UNL11      -0.0495
      9 C          -2.0043   -3.1400    0.2757 C.ar    1  UNL11      -0.0592
     10 C          -2.7388   -2.3450   -0.6111 C.ar    1  UNL11      -0.0350
     11 C          -2.1443   -1.3096   -1.2839 C.ar    1  UNL11       0.1092
     12 S          -2.9648   -0.2560   -2.4012 S.O2    1  UNL11       0.0724
     13 O          -4.1123    0.4603   -1.7448 O.2     1  UNL11      -0.1500
     14 O          -3.5385   -1.1243   -3.4892 O.2     1  UNL11      -0.1500
     15 N          -1.8423    0.8808   -3.0238 N.pl3   1  UNL11      -0.2135
     16 C          -0.6863    0.5347   -3.7597 C.ar    1  UNL11       0.0831
     17 C          -0.7080    0.4273   -5.1254 C.ar    1  UNL11      -0.0365
     18 C           0.3946    0.0823   -5.8885 C.ar    1  UNL11      -0.0598
     19 C           1.5697   -0.1645   -5.2386 C.ar    1  UNL11      -0.0589
     20 C           1.6213   -0.0641   -3.8683 C.ar    1  UNL11      -0.0246
     21 C           0.5185    0.2785   -3.1325 C.ar    1  UNL11       0.1456
     22 F           0.5786    0.3739   -1.7889 F       1  UNL11      -0.2035
     23 C          -0.7867   -1.0751   -1.0566 C.ar    1  UNL11      -0.0229
     24 C          -0.1090   -2.4892   -2.1122 C.ar    1  UNL11       0.0410
     25 C          -1.4320   -2.7775   -2.2980 C.ar    1  UNL11      -0.0314
     26 C          -2.0475   -3.8208   -1.6529 C.ar    1  UNL11       0.0283
     27 N          -1.3804   -4.6124   -0.8050 N.ar    1  UNL11      -0.2632
     28 C          -0.0797   -4.3383   -0.6146 C.ar    1  UNL11       0.0283
     29 C           0.5905   -3.3089   -1.2311 C.ar    1  UNL11      -0.0314
     30 H           2.1183    0.1000   -2.7392 H       1  UNL11       0.1731
     31 H           3.2196   -0.8391   -0.7891 H       1  UNL11       0.1731
     32 H          -0.1017   -3.4854    1.1534 H       1  UNL11       0.0625
     33 H          -2.5299   -3.9424    0.7772 H       1  UNL11       0.0618
     34 H          -3.7877   -2.5661   -0.7609 H       1  UNL11       0.0637
     35 H          -1.9841    1.9275   -2.8703 H       1  UNL11       0.1738
     36 H          -1.6376    0.6181   -5.6163 H       1  UNL11       0.0637
     37 H           0.2796    0.0230   -6.9701 H       1  UNL11       0.0618
     38 H           2.4593   -0.4379   -5.7929 H       1  UNL11       0.0618
     39 H           2.5820   -0.2714   -3.4069 H       1  UNL11       0.0647
     40 H          -0.2973   -0.2565   -1.5799 H       1  UNL11       0.0645
     41 H          -2.0106   -2.1714   -2.9690 H       1  UNL11       0.0640
     42 H          -3.1045   -3.9893   -1.8515 H       1  UNL11       0.0830
     43 H           0.4632   -4.9921    0.0822 H       1  UNL11       0.0830
     44 H           1.6358   -3.0925   -1.0746 H       1  UNL11       0.0640
@<TRIPOS>BOND
     1     1     2    2
     2     2     3   am
     3     2    24    1
     4     3     4    1
     5     3    30    1
     6     4     5   am
     7     4    31    1
     8     5     6    2
     9     5     7    1
    10     7     8   ar
    11     8     9   ar
    12     8    32    1
    13     9    10   ar
    14     9    33    1
    15    10    11   ar
    16    10    34    1
    17    11    12    1
    18    11    23   ar
    19    12    13    2
    20    12    14    2
    21    12    15    1
    22    15    16    1
    23    15    35    1
    24    16    17   ar
    25    17    18   ar
    26    17    36    1
    27    18    19   ar
    28    18    37    1
    29    19    20   ar
    30    19    38    1
    31    20    21   ar
    32    20    39    1
    33    21    22    1
    34    21    16   ar
    35    23     7   ar
    36    23    40    1
    37    24    25   ar
    38    25    26   ar
    39    25    41    1
    40    26    27   ar
    41    26    42    1
    42    27    28   ar
    43    28    29   ar
    44    28    43    1
    45    29    24   ar
    46    29    44    1
@<TRIPOS>MOLECULE
*****
 44 46 0 0 0
SMALL
GASTEIGER

@<TRIPOS>ATOM
      1 O          -0.6031    0.0759   -0.3810 O.2     1  UNL11      -0.2687
      2 C          -0.0084    0.6222   -1.3531 C.2     1  UNL11       0.2602
      3 N           1.3735    0.3323   -1.4892 N.am    1  UNL11      -0.2301
      4 N           2.0760   -0.5087   -0.6164 N.am    1  UNL11      -0.2301
      5 C           1.3651   -1.5585    0.0131 C.2     1  UNL11       0.2602
      6 O           1.9940   -2.3017    0.8066 O.2     1  UNL11      -0.2687
      7 C          -0.0424   -1.8272   -0.2025 C.ar    1  UNL11       0.0400
      8 C          -0.6723   -2.8587    0.4564 C.ar    1  UNL11      -0.0495
      9 C          -2.0043   -3.1400    0.2757 C.ar    1  UNL11      -0.0592
     10 C          -2.7388   -2.3450   -0.6111 C.ar    1  UNL11      -0.0350
     11 C          -2.1443   -1.3096   -1.2839 C.ar    1  UNL11       0.1092
     12 S          -2.9648   -0.2560   -2.4012 S.O2    1  UNL11       0.0724
     13 O          -4.0768   -0.9694   -3.1191 O.2     1  UNL11      -0.1500
     14 O          -1.9559    0.1637   -3.4369 O.2     1  UNL11      -0.1500
     15 N          -3.5892    1.0907   -1.5430 N.pl3   1  UNL11      -0.2135
     16 C          -3.7507    2.3808   -2.0974 C.ar    1  UNL11       0.0831
     17 C          -4.9138    2.7580   -2.7154 C.ar    1  UNL11      -0.0365
     18 C          -5.1159    4.0054   -3.2812 C.ar    1  UNL11      -0.0598
     19 C          -4.0943    4.9091   -3.2175 C.ar    1  UNL11      -0.0589
     20 C          -2.9155    4.5584   -2.6030 C.ar    1  UNL11      -0.0246
     21 C          -2.7364    3.3187   -2.0498 C.ar    1  UNL11       0.1456
     22 F          -1.5764    2.9835   -1.4498 F       1  UNL11      -0.2035
     23 C          -0.7867   -1.0751   -1.0566 C.ar    1  UNL11      -0.0229
     24 C          -0.7354    1.5078   -2.2795 C.ar    1  UNL11       0.0410
     25 C          -2.0659    1.3705   -2.5602 C.ar    1  UNL11      -0.0314
     26 C          -2.7176    2.2109   -3.4277 C.ar    1  UNL11       0.0283
     27 N          -2.0802    3.2120   -4.0460 N.ar    1  UNL11      -0.2632
     28 C          -0.7724    3.3563   -3.7778 C.ar    1  UNL11       0.0283
     29 C          -0.0666    2.5473   -2.9197 C.ar    1  UNL11      -0.0314
     30 H           1.9116    0.7595   -2.2727 H       1  UNL11       0.1731
     31 H           3.0746   -0.3496   -0.4523 H       1  UNL11       0.1731
     32 H          -0.1017   -3.4854    1.1534 H       1  UNL11       0.0625
     33 H          -2.5299   -3.9424    0.7772 H       1  UNL11       0.0618
     34 H          -3.7877   -2.5661   -0.7609 H       1  UNL11       0.0637
     35 H          -3.8877    0.9964   -0.5226 H       1  UNL11       0.1738
     36 H          -5.6998    2.0358   -2.7611 H       1  UNL11       0.0637
     37 H          -6.0766    4.2133   -3.7506 H       1  UNL11       0.0618
     38 H          -4.2055    5.8977   -3.6462 H       1  UNL11       0.0618
     39 H          -2.1395    5.3176   -2.5826 H       1  UNL11       0.0647
     40 H          -0.2973   -0.2565   -1.5799 H       1  UNL11       0.0645
     41 H          -2.6216    0.5822   -2.0889 H       1  UNL11       0.0640
     42 H          -3.7785    2.0396   -3.6015 H       1  UNL11       0.0830
     43 H          -0.2544    4.1804   -4.2878 H       1  UNL11       0.0830
     44 H           0.9844    2.6671   -2.7077 H       1  UNL11       0.0640
@<TRIPOS>BOND
     1     1     2    2
     2     2     3   am
     3     2    24    1
     4     3     4    1
     5     3    30    1
     6     4     5   am
     7     4    31    1
     8     5     6    2
     9     5     7    1
    10     7     8   ar
    11     8     9   ar
    12     8    32    1
    13     9    10   ar
    14     9    33    1
    15    10    11   ar
    16    10    34    1
    17    11    12    1
    18    11    23   ar
    19    12    13    2
    20    12    14    2
    21    12    15    1
    22    15    16    1
    23    15    35    1
    24    16    17   ar
    25    17    18   ar
    26    17    36    1
    27    18    19   ar
    28    18    37    1
    29    19    20   ar
    30    19    38    1
    31    20    21   ar
    32    20    39    1
    33    21    22    1
    34    21    16   ar
    35    23     7   ar
    36    23    40    1
    37    24    25   ar
    38    25    26   ar
    39    25    41    1
    40    26    27   ar
    41    26    42    1
    42    27    28   ar
    43    28    29   ar
    44    28    43    1
    45    29    24   ar
    46    29    44    1
@<TRIPOS>MOLECULE
*****
 44 46 0 0 0
SMALL
GASTEIGER

@<TRIPOS>ATOM
      1 O          -0.6488   -1.4477    1.6346 O.2     1  UNL11      -0.2687
      2 C          -0.0697   -2.1975    2.4710 C.2     1  UNL11       0.2602
      3 N           1.3197   -2.4054    2.2743 N.am    1  UNL11      -0.2301
      4 N           2.0460   -1.8285    1.2244 N.am    1  UNL11      -0.2301
      5 C           1.3651   -1.5585    0.0131 C.2     1  UNL11       0.2602
      6 O           2.0223   -1.0552   -0.9315 O.2     1  UNL11      -0.2687
      7 C          -0.0424   -1.8272   -0.2025 C.ar    1  UNL11       0.0400
      8 C          -0.6723   -2.8587    0.4564 C.ar    1  UNL11      -0.0495
      9 C          -2.0043   -3.1400    0.2757 C.ar    1  UNL11      -0.0592
     10 C          -2.7388   -2.3450   -0.6111 C.ar    1  UNL11      -0.0350
     11 C          -2.1443   -1.3096   -1.2839 C.ar    1  UNL11       0.1092
     12 S          -2.9648   -0.2560   -2.4012 S.O2    1  UNL11       0.0724
     13 O          -2.0399    0.7934   -2.9527 O.2     1  UNL11      -0.1500
     14 O          -4.0438    0.4551   -1.6287 O.2     1  UNL11      -0.1500
     15 N          -3.6154   -1.1954   -3.6796 N.pl3   1  UNL11      -0.2135
     16 C          -4.5720   -2.2210   -3.5048 C.ar    1  UNL11       0.0831
     17 C          -5.9173   -1.9668   -3.5576 C.ar    1  UNL11      -0.0365
     18 C          -6.8915   -2.9351   -3.3833 C.ar    1  UNL11      -0.0598
     19 C          -6.4838   -4.2163   -3.1452 C.ar    1  UNL11      -0.0589
     20 C          -5.1400   -4.5010   -3.0871 C.ar    1  UNL11      -0.0246
     21 C          -4.1927   -3.5278   -3.2622 C.ar    1  UNL11       0.1456
     22 F          -2.8770   -3.8165   -3.2027 F       1  UNL11      -0.2035
     23 C          -0.7867   -1.0751   -1.0566 C.ar    1  UNL11      -0.0229
     24 C          -0.8212   -2.8096    3.5808 C.ar    1  UNL11       0.0410
     25 C          -1.9214   -2.2325    4.1504 C.ar    1  UNL11      -0.0314
     26 C          -2.6025   -2.8260    5.1835 C.ar    1  UNL11       0.0283
     27 N          -2.2218   -4.0054    5.6883 N.ar    1  UNL11      -0.2632
     28 C          -1.1418   -4.5817    5.1364 C.ar    1  UNL11       0.0283
     29 C          -0.4200   -4.0365    4.1017 C.ar    1  UNL11      -0.0314
     30 H           1.8444   -3.0177    2.9344 H       1  UNL11       0.1731
     31 H           3.0404   -1.6176    1.3511 H       1  UNL11       0.1731
     32 H          -0.1017   -3.4854    1.1534 H       1  UNL11       0.0625
     33 H          -2.5299   -3.9424    0.7772 H       1  UNL11       0.0618
     34 H          -3.7877   -2.5661   -0.7609 H       1  UNL11       0.0637
     35 H          -3.3076   -1.0311   -4.6884 H       1  UNL11       0.1738
     36 H          -6.2176   -0.9577   -3.7388 H       1  UNL11       0.0637
     37 H          -7.9373   -2.6365   -3.4437 H       1  UNL11       0.0618
     38 H          -7.2093   -5.0079   -3.0022 H       1  UNL11       0.0618
     39 H          -4.8757   -5.5364   -2.8951 H       1  UNL11       0.0647
     40 H          -0.2973   -0.2565   -1.5799 H       1  UNL11       0.0645
     41 H          -2.2667   -1.2858    3.7803 H       1  UNL11       0.0640
     42 H          -3.4701   -2.3062    5.5860 H       1  UNL11       0.0830
     43 H          -0.8343   -5.5503    5.5544 H       1  UNL11       0.0830
     44 H           0.4474   -4.5034    3.6617 H       1  UNL11       0.0640
@<TRIPOS>BOND
     1     1     2    2
     2     2     3   am
     3     2    24    1
     4     3     4    1
     5     3    30    1
     6     4     5   am
     7     4    31    1
     8     5     6    2
     9     5     7    1
    10     7     8   ar
    11     8     9   ar
    12     8    32    1
    13     9    10   ar
    14     9    33    1
    15    10    11   ar
    16    10    34    1
    17    11    12    1
    18    11    23   ar
    19    12    13    2
    20    12    14    2
    21    12    15    1
    22    15    16    1
    23    15    35    1
    24    16    17   ar
    25    17    18   ar
    26    17    36    1
    27    18    19   ar
    28    18    37    1
    29    19    20   ar
    30    19    38    1
    31    20    21   ar
    32    20    39    1
    33    21    22    1
    34    21    16   ar
    35    23     7   ar
    36    23    40    1
    37    24    25   ar
    38    25    26   ar
    39    25    41    1
    40    26    27   ar
    41    26    42    1
    42    27    28   ar
    43    28    29   ar
    44    28    43    1
    45    29    24   ar
    46    29    44    1
@<TRIPOS>MOLECULE
*****
 44 46 0 0 0
SMALL
GASTEIGER

@<TRIPOS>ATOM
      1 O           0.2063   -0.9862   -3.9326 O.2     1  UNL11      -0.2687
      2 C           0.5796   -1.3768   -2.7901 C.2     1  UNL11       0.2602
      3 N           1.6800   -0.6887   -2.2177 N.am    1  UNL11      -0.2301
      4 N           2.2251   -1.0082   -0.9674 N.am    1  UNL11      -0.2301
      5 C           1.3651   -1.5585    0.0131 C.2     1  UNL11       0.2602
      6 O           1.8532   -1.8301    1.1381 O.2     1  UNL11      -0.2687
      7 C          -0.0424   -1.8272   -0.2025 C.ar    1  UNL11       0.0400
      8 C          -0.6723   -2.8587    0.4564 C.ar    1  UNL11      -0.0495
      9 C          -2.0043   -3.1400    0.2757 C.ar    1  UNL11      -0.0592
     10 C          -2.7388   -2.3450   -0.6111 C.ar    1  UNL11      -0.0350
     11 C          -2.1443   -1.3096   -1.2839 C.ar    1  UNL11       0.1092
     12 S          -2.9648   -0.2560   -2.4012 S.O2    1  UNL11       0.0724
     13 O          -4.0768   -0.9694   -3.1191 O.2     1  UNL11      -0.1500
     14 O          -1.9559    0.1637   -3.4369 O.2     1  UNL11      -0.1500
     15 N          -3.5892    1.0907   -1.5430 N.pl3   1  UNL11      -0.2135
     16 C          -4.7588    1.7941   -1.9102 C.ar    1  UNL11       0.0831
     17 C          -5.9923    1.4394   -1.4308 C.ar    1  UNL11      -0.0365
     18 C          -7.1664    2.0908   -1.7685 C.ar    1  UNL11      -0.0598
     19 C          -7.0861    3.1474   -2.6296 C.ar    1  UNL11      -0.0589
     20 C          -5.8615    3.5262   -3.1266 C.ar    1  UNL11      -0.0246
     21 C          -4.7121    2.8677   -2.7796 C.ar    1  UNL11       0.1456
     22 F          -3.5156    3.2460   -3.2727 F       1  UNL11      -0.2035
     23 C          -0.7867   -1.0751   -1.0566 C.ar    1  UNL11      -0.0229
     24 C          -0.1090   -2.4892   -2.1122 C.ar    1  UNL11       0.0410
     25 C           0.5159   -3.3425   -1.2466 C.ar    1  UNL11      -0.0314
     26 C          -0.1511   -4.3705   -0.6288 C.ar    1  UNL11       0.0283
     27 N          -1.4533   -4.5910   -0.8439 N.ar    1  UNL11      -0.2632
     28 C          -2.0776   -3.7587   -1.6928 C.ar    1  UNL11       0.0283
     29 C          -1.4638   -2.7134   -2.3403 C.ar    1  UNL11      -0.0314
     30 H           2.1183    0.1000   -2.7392 H       1  UNL11       0.1731
     31 H           3.2196   -0.8391   -0.7891 H       1  UNL11       0.1731
     32 H          -0.1017   -3.4854    1.1534 H       1  UNL11       0.0625
     33 H          -2.5299   -3.9424    0.7772 H       1  UNL11       0.0618
     34 H          -3.7877   -2.5661   -0.7609 H       1  UNL11       0.0637
     35 H          -3.0965    1.4571   -0.6699 H       1  UNL11       0.1738
     36 H          -6.0364    0.6065   -0.7630 H       1  UNL11       0.0637
     37 H          -8.1005    1.7357   -1.3350 H       1  UNL11       0.0618
     38 H          -7.9777    3.6880   -2.9231 H       1  UNL11       0.0618
     39 H          -5.8594    4.3727   -3.8064 H       1  UNL11       0.0647
     40 H          -0.2973   -0.2565   -1.5799 H       1  UNL11       0.0645
     41 H           1.5607   -3.2069   -1.0408 H       1  UNL11       0.0640
     42 H           0.4135   -5.0091    0.0483 H       1  UNL11       0.0830
     43 H          -3.1470   -3.9441   -1.8651 H       1  UNL11       0.0830
     44 H          -1.9697   -2.0475   -3.0219 H       1  UNL11       0.0640
@<TRIPOS>BOND
     1     1     2    2
     2     2     3   am
     3     2    24    1
     4     3     4    1
     5     3    30    1
     6     4     5   am
     7     4    31    1
     8     5     6    2
     9     5     7    1
    10     7     8   ar
    11     8     9   ar
    12     8    32    1
    13     9    10   ar
    14     9    33    1
    15    10    11   ar
    16    10    34    1
    17    11    12    1
    18    11    23   ar
    19    12    13    2
    20    12    14    2
    21    12    15    1
    22    15    16    1
    23    15    35    1
    24    16    17   ar
    25    17    18   ar
    26    17    36    1
    27    18    19   ar
    28    18    37    1
    29    19    20   ar
    30    19    38    1
    31    20    21   ar
    32    20    39    1
    33    21    22    1
    34    21    16   ar
    35    23     7   ar
    36    23    40    1
    37    24    25   ar
    38    25    26   ar
    39    25    41    1
    40    26    27   ar
    41    26    42    1
    42    27    28   ar
    43    28    29   ar
    44    28    43    1
    45    29    24   ar
    46    29    44    1
@<TRIPOS>MOLECULE
*****
 44 46 0 0 0
SMALL
GASTEIGER

@<TRIPOS>ATOM
      1 O           5.2454   -0.3409    0.8496 O.2     1  UNL11      -0.2687
      2 C           4.0038   -0.5191    0.6949 C.2     1  UNL11       0.2602
      3 N           3.5677   -0.8013   -0.6251 N.am    1  UNL11      -0.2301
      4 N           2.2251   -1.0082   -0.9674 N.am    1  UNL11      -0.2301
      5 C           1.3651   -1.5585    0.0131 C.2     1  UNL11       0.2602
      6 O           1.8532   -1.8301    1.1381 O.2     1  UNL11      -0.2687
      7 C          -0.0424   -1.8272   -0.2025 C.ar    1  UNL11       0.0400
      8 C          -0.6723   -2.8587    0.4564 C.ar    1  UNL11      -0.0495
      9 C          -2.0043   -3.1400    0.2757 C.ar    1  UNL11      -0.0592
     10 C          -2.7388   -2.3450   -0.6111 C.ar    1  UNL11      -0.0350
     11 C          -2.1443   -1.3096   -1.2839 C.ar    1  UNL11       0.1092
     12 S          -2.9648   -0.2560   -2.4012 S.O2    1  UNL11       0.0724
     13 O          -2.3280   -0.2901   -3.7629 O.2     1  UNL11      -0.1500
     14 O          -2.8237    1.1466   -1.8726 O.2     1  UNL11      -0.1500
     15 N          -4.6092   -0.7293   -2.5103 N.pl3   1  UNL11      -0.2135
     16 C          -5.1748   -1.8079   -1.7931 C.ar    1  UNL11       0.0831
     17 C          -5.7351   -1.6339   -0.5550 C.ar    1  UNL11      -0.0365
     18 C          -6.2922   -2.6597    0.1895 C.ar    1  UNL11      -0.0598
     19 C          -6.2806   -3.9162   -0.3448 C.ar    1  UNL11      -0.0589
     20 C          -5.7252   -4.1208   -1.5857 C.ar    1  UNL11      -0.0246
     21 C          -5.1791   -3.0918   -2.3053 C.ar    1  UNL11       0.1456
     22 F          -4.6361   -3.3022   -3.5214 F       1  UNL11      -0.2035
     23 C          -0.7867   -1.0751   -1.0566 C.ar    1  UNL11      -0.0229
     24 C           3.0818   -0.4325    1.8410 C.ar    1  UNL11       0.0410
     25 C           3.4449   -0.7436    3.1214 C.ar    1  UNL11      -0.0314
     26 C           2.5645   -0.6533    4.1702 C.ar    1  UNL11       0.0283
     27 N           1.2996   -0.2546    3.9916 N.ar    1  UNL11      -0.2632
     28 C           0.9317    0.0535    2.7375 C.ar    1  UNL11       0.0283
     29 C           1.7672   -0.0172    1.6486 C.ar    1  UNL11      -0.0314
     30 H           4.2687   -0.8635   -1.3937 H       1  UNL11       0.1731
     31 H           1.8970   -0.7622   -1.9061 H       1  UNL11       0.1731
     32 H          -0.1017   -3.4854    1.1534 H       1  UNL11       0.0625
     33 H          -2.5299   -3.9424    0.7772 H       1  UNL11       0.0618
     34 H          -3.7877   -2.5661   -0.7609 H       1  UNL11       0.0637
     35 H          -5.2863   -0.2057   -3.1480 H       1  UNL11       0.1738
     36 H          -5.7297   -0.6451   -0.1504 H       1  UNL11       0.0637
     37 H          -6.7151   -2.4231    1.1650 H       1  UNL11       0.0618
     38 H          -6.7046   -4.7508    0.2003 H       1  UNL11       0.0618
     39 H          -5.7448   -5.1401   -1.9592 H       1  UNL11       0.0647
     40 H          -0.2973   -0.2565   -1.5799 H       1  UNL11       0.0645
     41 H           4.4493   -1.0684    3.3163 H       1  UNL11       0.0640
     42 H           2.9262   -0.9176    5.1623 H       1  UNL11       0.0830
     43 H          -0.1078    0.3810    2.5970 H       1  UNL11       0.0830
     44 H           1.4667    0.2312    0.6426 H       1  UNL11       0.0640
@<TRIPOS>BOND
     1     1     2    2
     2     2     3   am
     3     2    24    1
     4     3     4    1
     5     3    30    1
     6     4     5   am
     7     4    31    1
     8     5     6    2
     9     5     7    1
    10     7     8   ar
    11     8     9   ar
    12     8    32    1
    13     9    10   ar
    14     9    33    1
    15    10    11   ar
    16    10    34    1
    17    11    12    1
    18    11    23   ar
    19    12    13    2
    20    12    14    2
    21    12    15    1
    22    15    16    1
    23    15    35    1
    24    16    17   ar
    25    17    18   ar
    26    17    36    1
    27    18    19   ar
    28    18    37    1
    29    19    20   ar
    30    19    38    1
    31    20    21   ar
    32    20    39    1
    33    21    22    1
    34    21    16   ar
    35    23     7   ar
    36    23    40    1
    37    24    25   ar
    38    25    26   ar
    39    25    41    1
    40    26    27   ar
    41    26    42    1
    42    27    28   ar
    43    28    29   ar
    44    28    43    1
    45    29    24   ar
    46    29    44    1
@<TRIPOS>MOLECULE
*****
 44 46 0 0 0
SMALL
GASTEIGER

@<TRIPOS>ATOM
      1 O           5.4836   -1.1599    0.2963 O.2     1  UNL11      -0.2687
      2 C           4.2797   -1.4463    0.0399 C.2     1  UNL11       0.2602
      3 N           3.4370   -0.3629   -0.3183 N.am    1  UNL11      -0.2301
      4 N           2.0760   -0.5087   -0.6164 N.am    1  UNL11      -0.2301
      5 C           1.3651   -1.5585    0.0131 C.2     1  UNL11       0.2602
      6 O           1.9940   -2.3017    0.8066 O.2     1  UNL11      -0.2687
      7 C          -0.0424   -1.8272   -0.2025 C.ar    1  UNL11       0.0400
      8 C          -0.6723   -2.8587    0.4564 C.ar    1  UNL11      -0.0495
      9 C          -2.0043   -3.1400    0.2757 C.ar    1  UNL11      -0.0592
     10 C          -2.7388   -2.3450   -0.6111 C.ar    1  UNL11      -0.0350
     11 C          -2.1443   -1.3096   -1.2839 C.ar    1  UNL11       0.1092
     12 S          -2.9648   -0.2560   -2.4012 S.O2    1  UNL11       0.0724
     13 O          -2.9416    1.1726   -1.9329 O.2     1  UNL11      -0.1500
     14 O          -4.4050   -0.6924   -2.4456 O.2     1  UNL11      -0.1500
     15 N          -2.2172   -0.3818   -3.9391 N.pl3   1  UNL11      -0.2135
     16 C          -1.5725   -1.5454   -4.4165 C.ar    1  UNL11       0.0831
     17 C          -0.2365   -1.7654   -4.2067 C.ar    1  UNL11      -0.0365
     18 C           0.4408   -2.8836   -4.6624 C.ar    1  UNL11      -0.0598
     19 C          -0.2672   -3.8191   -5.3609 C.ar    1  UNL11      -0.0589
     20 C          -1.6095   -3.6251   -5.5864 C.ar    1  UNL11      -0.0246
     21 C          -2.2601   -2.5114   -5.1269 C.ar    1  UNL11       0.1456
     22 F          -3.5767   -2.3294   -5.3535 F       1  UNL11      -0.2035
     23 C          -0.7867   -1.0751   -1.0566 C.ar    1  UNL11      -0.0229
     24 C           3.8038   -2.8387    0.1168 C.ar    1  UNL11       0.0410
     25 C           4.6082   -3.8887    0.4611 C.ar    1  UNL11      -0.0314
     26 C           4.1374   -5.1762    0.5249 C.ar    1  UNL11       0.0283
     27 N           2.8610   -5.4704    0.2517 N.ar    1  UNL11      -0.2632
     28 C           2.0614   -4.4465   -0.0879 C.ar    1  UNL11       0.0283
     29 C           2.4748   -3.1383   -0.1688 C.ar    1  UNL11      -0.0314
     30 H           3.8338    0.5994   -0.3692 H       1  UNL11       0.1731
     31 H           1.6287    0.1363   -1.2747 H       1  UNL11       0.1731
     32 H          -0.1017   -3.4854    1.1534 H       1  UNL11       0.0625
     33 H          -2.5299   -3.9424    0.7772 H       1  UNL11       0.0618
     34 H          -3.7877   -2.5661   -0.7609 H       1  UNL11       0.0637
     35 H          -2.2130    0.4462   -4.6128 H       1  UNL11       0.1738
     36 H           0.3025   -1.0198   -3.6635 H       1  UNL11       0.0637
     37 H           1.5047   -2.9707   -4.4453 H       1  UNL11       0.0618
     38 H           0.2195   -4.7106   -5.7376 H       1  UNL11       0.0618
     39 H          -2.1201   -4.4022   -6.1471 H       1  UNL11       0.0647
     40 H          -0.2973   -0.2565   -1.5799 H       1  UNL11       0.0645
     41 H           5.6407   -3.7041    0.6898 H       1  UNL11       0.0640
     42 H           4.8377   -5.9606    0.8068 H       1  UNL11       0.0830
     43 H           1.0141   -4.6939   -0.3104 H       1  UNL11       0.0830
     44 H           1.8285   -2.3189   -0.4424 H       1  UNL11       0.0640
@<TRIPOS>BOND
     1     1     2    2
     2     2     3   am
     3     2    24    1
     4     3     4    1
     5     3    30    1
     6     4     5   am
     7     4    31    1
     8     5     6    2
     9     5     7    1
    10     7     8   ar
    11     8     9   ar
    12     8    32    1
    13     9    10   ar
    14     9    33    1
    15    10    11   ar
    16    10    34    1
    17    11    12    1
    18    11    23   ar
    19    12    13    2
    20    12    14    2
    21    12    15    1
    22    15    16    1
    23    15    35    1
    24    16    17   ar
    25    17    18   ar
    26    17    36    1
    27    18    19   ar
    28    18    37    1
    29    19    20   ar
    30    19    38    1
    31    20    21   ar
    32    20    39    1
    33    21    22    1
    34    21    16   ar
    35    23     7   ar
    36    23    40    1
    37    24    25   ar
    38    25    26   ar
    39    25    41    1
    40    26    27   ar
    41    26    42    1
    42    27    28   ar
    43    28    29   ar
    44    28    43    1
    45    29    24   ar
    46    29    44    1
@<TRIPOS>MOLECULE
*****
 44 46 0 0 0
SMALL
GASTEIGER

@<TRIPOS>ATOM
      1 O           0.4897   -5.6122   -0.0292 O.2     1  UNL11      -0.2687
      2 C           0.7831   -4.4040   -0.2557 C.2     1  UNL11       0.2602
      3 N           1.8750   -3.8729    0.4775 N.am    1  UNL11      -0.2301
      4 N           2.3167   -2.5491    0.3552 N.am    1  UNL11      -0.2301
      5 C           1.3651   -1.5585    0.0131 C.2     1  UNL11       0.2602
      6 O           1.7666   -0.3749   -0.1106 O.2     1  UNL11      -0.2687
      7 C          -0.0424   -1.8272   -0.2025 C.ar    1  UNL11       0.0400
      8 C          -0.6723   -2.8587    0.4564 C.ar    1  UNL11      -0.0495
      9 C          -2.0043   -3.1400    0.2757 C.ar    1  UNL11      -0.0592
     10 C          -2.7388   -2.3450   -0.6111 C.ar    1  UNL11      -0.0350
     11 C          -2.1443   -1.3096   -1.2839 C.ar    1  UNL11       0.1092
     12 S          -2.9648   -0.2560   -2.4012 S.O2    1  UNL11       0.0724
     13 O          -4.0768   -0.9694   -3.1191 O.2     1  UNL11      -0.1500
     14 O          -1.9559    0.1637   -3.4369 O.2     1  UNL11      -0.1500
     15 N          -3.5892    1.0907   -1.5430 N.pl3   1  UNL11      -0.2135
     16 C          -3.7507    2.3808   -2.0974 C.ar    1  UNL11       0.0831
     17 C          -4.9138    2.7580   -2.7154 C.ar    1  UNL11      -0.0365
     18 C          -5.1159    4.0054   -3.2812 C.ar    1  UNL11      -0.0598
     19 C          -4.0943    4.9091   -3.2175 C.ar    1  UNL11      -0.0589
     20 C          -2.9155    4.5584   -2.6030 C.ar    1  UNL11      -0.0246
     21 C          -2.7364    3.3187   -2.0498 C.ar    1  UNL11       0.1456
     22 F          -1.5764    2.9835   -1.4498 F       1  UNL11      -0.2035
     23 C          -0.7867   -1.0751   -1.0566 C.ar    1  UNL11      -0.0229
     24 C           0.0155   -3.6131   -1.2336 C.ar    1  UNL11       0.0410
     25 C          -1.0379   -4.1162   -1.9445 C.ar    1  UNL11      -0.0314
     26 C          -1.7353   -3.3557   -2.8492 C.ar    1  UNL11       0.0283
     27 N          -1.4177   -2.0770   -3.0828 N.ar    1  UNL11      -0.2632
     28 C          -0.3841   -1.5721   -2.3901 C.ar    1  UNL11       0.0283
     29 C           0.3510   -2.2834   -1.4723 C.ar    1  UNL11      -0.0314
     30 H           2.3891   -4.4850    1.1461 H       1  UNL11       0.1731
     31 H           3.3044   -2.3270    0.5121 H       1  UNL11       0.1731
     32 H          -0.1017   -3.4854    1.1534 H       1  UNL11       0.0625
     33 H          -2.5299   -3.9424    0.7772 H       1  UNL11       0.0618
     34 H          -3.7877   -2.5661   -0.7609 H       1  UNL11       0.0637
     35 H          -3.8877    0.9964   -0.5226 H       1  UNL11       0.1738
     36 H          -5.6998    2.0358   -2.7611 H       1  UNL11       0.0637
     37 H          -6.0766    4.2133   -3.7506 H       1  UNL11       0.0618
     38 H          -4.2055    5.8977   -3.6462 H       1  UNL11       0.0618
     39 H          -2.1395    5.3176   -2.5826 H       1  UNL11       0.0647
     40 H          -0.2973   -0.2565   -1.5799 H       1  UNL11       0.0645
     41 H          -1.3319   -5.1374   -1.7924 H       1  UNL11       0.0640
     42 H          -2.5630   -3.8255   -3.3778 H       1  UNL11       0.0830
     43 H          -0.1283   -0.5214   -2.5855 H       1  UNL11       0.0830
     44 H           1.1810   -1.8732   -0.9183 H       1  UNL11       0.0640
@<TRIPOS>BOND
     1     1     2    2
     2     2     3   am
     3     2    24    1
     4     3     4    1
     5     3    30    1
     6     4     5   am
     7     4    31    1
     8     5     6    2
     9     5     7    1
    10     7     8   ar
    11     8     9   ar
    12     8    32    1
    13     9    10   ar
    14     9    33    1
    15    10    11   ar
    16    10    34    1
    17    11    12    1
    18    11    23   ar
    19    12    13    2
    20    12    14    2
    21    12    15    1
    22    15    16    1
    23    15    35    1
    24    16    17   ar
    25    17    18   ar
    26    17    36    1
    27    18    19   ar
    28    18    37    1
    29    19    20   ar
    30    19    38    1
    31    20    21   ar
    32    20    39    1
    33    21    22    1
    34    21    16   ar
    35    23     7   ar
    36    23    40    1
    37    24    25   ar
    38    25    26   ar
    39    25    41    1
    40    26    27   ar
    41    26    42    1
    42    27    28   ar
    43    28    29   ar
    44    28    43    1
    45    29    24   ar
    46    29    44    1
@<TRIPOS>MOLECULE
*****
 44 46 0 0 0
SMALL
GASTEIGER

@<TRIPOS>ATOM
      1 O           3.7392   -2.5879    0.0804 O.2     1  UNL11      -0.2687
      2 C           4.2797   -1.4463    0.0399 C.2     1  UNL11       0.2602
      3 N           3.4370   -0.3629   -0.3183 N.am    1  UNL11      -0.2301
      4 N           2.0760   -0.5087   -0.6164 N.am    1  UNL11      -0.2301
      5 C           1.3651   -1.5585    0.0131 C.2     1  UNL11       0.2602
      6 O           1.9940   -2.3017    0.8066 O.2     1  UNL11      -0.2687
      7 C          -0.0424   -1.8272   -0.2025 C.ar    1  UNL11       0.0400
      8 C          -0.6723   -2.8587    0.4564 C.ar    1  UNL11      -0.0495
      9 C          -2.0043   -3.1400    0.2757 C.ar    1  UNL11      -0.0592
     10 C          -2.7388   -2.3450   -0.6111 C.ar    1  UNL11      -0.0350
     11 C          -2.1443   -1.3096   -1.2839 C.ar    1  UNL11       0.1092
     12 S          -2.9648   -0.2560   -2.4012 S.O2    1  UNL11       0.0724
     13 O          -3.5240   -1.0178   -3.5707 O.2     1  UNL11      -0.1500
     14 O          -1.9385    0.7055   -2.9387 O.2     1  UNL11      -0.1500
     15 N          -4.2262    0.5604   -1.5753 N.pl3   1  UNL11      -0.2135
     16 C          -4.1969    0.8828   -0.1994 C.ar    1  UNL11       0.0831
     17 C          -4.6870    0.0262    0.7510 C.ar    1  UNL11      -0.0365
     18 C          -4.6890    0.3011    2.1080 C.ar    1  UNL11      -0.0598
     19 C          -4.1719    1.4961    2.5187 C.ar    1  UNL11      -0.0589
     20 C          -3.6727    2.3755    1.5872 C.ar    1  UNL11      -0.0246
     21 C          -3.6805    2.0838    0.2494 C.ar    1  UNL11       0.1456
     22 F          -3.1893    2.9529   -0.6569 F       1  UNL11      -0.2035
     23 C          -0.7867   -1.0751   -1.0566 C.ar    1  UNL11      -0.0229
     24 C           5.7098   -1.2784    0.3525 C.ar    1  UNL11       0.0410
     25 C           6.5292   -2.3162    0.6984 C.ar    1  UNL11      -0.0314
     26 C           7.8585   -2.1302    0.9843 C.ar    1  UNL11       0.0283
     27 N           8.4226   -0.9176    0.9390 N.ar    1  UNL11      -0.2632
     28 C           7.6268    0.1096    0.6004 C.ar    1  UNL11       0.0283
     29 C           6.2906   -0.0143    0.3038 C.ar    1  UNL11      -0.0314
     30 H           3.8338    0.5994   -0.3692 H       1  UNL11       0.1731
     31 H           1.6287    0.1363   -1.2747 H       1  UNL11       0.1731
     32 H          -0.1017   -3.4854    1.1534 H       1  UNL11       0.0625
     33 H          -2.5299   -3.9424    0.7772 H       1  UNL11       0.0618
     34 H          -3.7877   -2.5661   -0.7609 H       1  UNL11       0.0637
     35 H          -5.1096    0.8636   -2.0920 H       1  UNL11       0.1738
     36 H          -5.0932   -0.9015    0.4105 H       1  UNL11       0.0637
     37 H          -5.1003   -0.4437    2.7881 H       1  UNL11       0.0618
     38 H          -4.1519    1.7557    3.5702 H       1  UNL11       0.0618
     39 H          -3.2745    3.3093    1.9725 H       1  UNL11       0.0647
     40 H          -0.2973   -0.2565   -1.5799 H       1  UNL11       0.0645
     41 H           6.1238   -3.3089    0.7485 H       1  UNL11       0.0640
     42 H           8.4486   -3.0051    1.2519 H       1  UNL11       0.0830
     43 H           8.0956    1.1029    0.5641 H       1  UNL11       0.0830
     44 H           5.6552    0.8143    0.0325 H       1  UNL11       0.0640
@<TRIPOS>BOND
     1     1     2    2
     2     2     3   am
     3     2    24    1
     4     3     4    1
     5     3    30    1
     6     4     5   am
     7     4    31    1
     8     5     6    2
     9     5     7    1
    10     7     8   ar
    11     8     9   ar
    12     8    32    1
    13     9    10   ar
    14     9    33    1
    15    10    11   ar
    16    10    34    1
    17    11    12    1
    18    11    23   ar
    19    12    13    2
    20    12    14    2
    21    12    15    1
    22    15    16    1
    23    15    35    1
    24    16    17   ar
    25    17    18   ar
    26    17    36    1
    27    18    19   ar
    28    18    37    1
    29    19    20   ar
    30    19    38    1
    31    20    21   ar
    32    20    39    1
    33    21    22    1
    34    21    16   ar
    35    23     7   ar
    36    23    40    1
    37    24    25   ar
    38    25    26   ar
    39    25    41    1
    40    26    27   ar
    41    26    42    1
    42    27    28   ar
    43    28    29   ar
    44    28    43    1
    45    29    24   ar
    46    29    44    1
@<TRIPOS>MOLECULE
*****
 44 46 0 0 0
SMALL
GASTEIGER

@<TRIPOS>ATOM
      1 O           5.3439    0.8599   -0.0540 O.2     1  UNL11      -0.2687
      2 C           4.1108    0.8854   -0.3295 C.2     1  UNL11       0.2602
      3 N           3.4370   -0.3629   -0.3183 N.am    1  UNL11      -0.2301
      4 N           2.0760   -0.5087   -0.6164 N.am    1  UNL11      -0.2301
      5 C           1.3651   -1.5585    0.0131 C.2     1  UNL11       0.2602
      6 O           1.9940   -2.3017    0.8066 O.2     1  UNL11      -0.2687
      7 C          -0.0424   -1.8272   -0.2025 C.ar    1  UNL11       0.0400
      8 C          -0.6723   -2.8587    0.4564 C.ar    1  UNL11      -0.0495
      9 C          -2.0043   -3.1400    0.2757 C.ar    1  UNL11      -0.0592
     10 C          -2.7388   -2.3450   -0.6111 C.ar    1  UNL11      -0.0350
     11 C          -2.1443   -1.3096   -1.2839 C.ar    1  UNL11       0.1092
     12 S          -2.9648   -0.2560   -2.4012 S.O2    1  UNL11       0.0724
     13 O          -2.3851    1.1312   -2.3806 O.2     1  UNL11      -0.1500
     14 O          -4.3956   -0.1534   -1.9442 O.2     1  UNL11      -0.1500
     15 N          -2.8497   -0.9169   -3.9792 N.pl3   1  UNL11      -0.2135
     16 C          -1.7748   -1.7166   -4.4293 C.ar    1  UNL11       0.0831
     17 C          -0.6696   -1.1678   -5.0246 C.ar    1  UNL11      -0.0365
     18 C           0.4029   -1.9096   -5.4899 C.ar    1  UNL11      -0.0598
     19 C           0.3523   -3.2663   -5.3452 C.ar    1  UNL11      -0.0589
     20 C          -0.7444   -3.8450   -4.7512 C.ar    1  UNL11      -0.0246
     21 C          -1.7948   -3.0925   -4.2981 C.ar    1  UNL11       0.1456
     22 F          -2.8665   -3.6689   -3.7174 F       1  UNL11      -0.2035
     23 C          -0.7867   -1.0751   -1.0566 C.ar    1  UNL11      -0.0229
     24 C           3.4348    2.1568   -0.6418 C.ar    1  UNL11       0.0410
     25 C           2.3640    2.2498   -1.4860 C.ar    1  UNL11      -0.0314
     26 C           1.7535    3.4483   -1.7585 C.ar    1  UNL11       0.0283
     27 N           2.1780    4.5923   -1.2092 N.ar    1  UNL11      -0.2632
     28 C           3.2298    4.5130   -0.3782 C.ar    1  UNL11       0.0283
     29 C           3.8814    3.3435   -0.0674 C.ar    1  UNL11      -0.0314
     30 H           3.9654   -1.2279   -0.0763 H       1  UNL11       0.1731
     31 H           1.6287    0.1363   -1.2747 H       1  UNL11       0.1731
     32 H          -0.1017   -3.4854    1.1534 H       1  UNL11       0.0625
     33 H          -2.5299   -3.9424    0.7772 H       1  UNL11       0.0618
     34 H          -3.7877   -2.5661   -0.7609 H       1  UNL11       0.0637
     35 H          -3.6149   -0.7393   -4.7019 H       1  UNL11       0.1738
     36 H          -0.6502   -0.1053   -5.1347 H       1  UNL11       0.0637
     37 H           1.2385   -1.3828   -5.9490 H       1  UNL11       0.0618
     38 H           1.1676   -3.8886   -5.6939 H       1  UNL11       0.0618
     39 H          -0.7287   -4.9270   -4.6634 H       1  UNL11       0.0647
     40 H          -0.2973   -0.2565   -1.5799 H       1  UNL11       0.0645
     41 H           1.9857    1.3596   -1.9515 H       1  UNL11       0.0640
     42 H           0.9054    3.4437   -2.4409 H       1  UNL11       0.0830
     43 H           3.5736    5.4554    0.0704 H       1  UNL11       0.0830
     44 H           4.7264    3.2849    0.6008 H       1  UNL11       0.0640
@<TRIPOS>BOND
     1     1     2    2
     2     2     3   am
     3     2    24    1
     4     3     4    1
     5     3    30    1
     6     4     5   am
     7     4    31    1
     8     5     6    2
     9     5     7    1
    10     7     8   ar
    11     8     9   ar
    12     8    32    1
    13     9    10   ar
    14     9    33    1
    15    10    11   ar
    16    10    34    1
    17    11    12    1
    18    11    23   ar
    19    12    13    2
    20    12    14    2
    21    12    15    1
    22    15    16    1
    23    15    35    1
    24    16    17   ar
    25    17    18   ar
    26    17    36    1
    27    18    19   ar
    28    18    37    1
    29    19    20   ar
    30    19    38    1
    31    20    21   ar
    32    20    39    1
    33    21    22    1
    34    21    16   ar
    35    23     7   ar
    36    23    40    1
    37    24    25   ar
    38    25    26   ar
    39    25    41    1
    40    26    27   ar
    41    26    42    1
    42    27    28   ar
    43    28    29   ar
    44    28    43    1
    45    29    24   ar
    46    29    44    1
@<TRIPOS>MOLECULE
*****
 44 46 0 0 0
SMALL
GASTEIGER

@<TRIPOS>ATOM
      1 O           0.1054   -5.0765    1.8124 O.2     1  UNL11      -0.2687
      2 C           0.5304   -4.1453    1.0713 C.2     1  UNL11       0.2602
      3 N           1.6125   -3.3810    1.5782 N.am    1  UNL11      -0.2301
      4 N           2.1885   -2.3058    0.8891 N.am    1  UNL11      -0.2301
      5 C           1.3651   -1.5585    0.0131 C.2     1  UNL11       0.2602
      6 O           1.8877   -0.6045   -0.6148 O.2     1  UNL11      -0.2687
      7 C          -0.0424   -1.8272   -0.2025 C.ar    1  UNL11       0.0400
      8 C          -0.6723   -2.8587    0.4564 C.ar    1  UNL11      -0.0495
      9 C          -2.0043   -3.1400    0.2757 C.ar    1  UNL11      -0.0592
     10 C          -2.7388   -2.3450   -0.6111 C.ar    1  UNL11      -0.0350
     11 C          -2.1443   -1.3096   -1.2839 C.ar    1  UNL11       0.1092
     12 S          -2.9648   -0.2560   -2.4012 S.O2    1  UNL11       0.0724
     13 O          -4.1123    0.4603   -1.7448 O.2     1  UNL11      -0.1500
     14 O          -3.5385   -1.1243   -3.4892 O.2     1  UNL11      -0.1500
     15 N          -1.8423    0.8808   -3.0238 N.pl3   1  UNL11      -0.2135
     16 C          -1.9238    1.4534   -4.3135 C.ar    1  UNL11       0.0831
     17 C          -1.3139    0.8771   -5.3966 C.ar    1  UNL11      -0.0365
     18 C          -1.3571    1.4048   -6.6759 C.ar    1  UNL11      -0.0598
     19 C          -2.0486    2.5668   -6.8649 C.ar    1  UNL11      -0.0589
     20 C          -2.6710    3.1676   -5.7962 C.ar    1  UNL11      -0.0246
     21 C          -2.6155    2.6288   -4.5386 C.ar    1  UNL11       0.1456
     22 F          -3.2285    3.2255   -3.4965 F       1  UNL11      -0.2035
     23 C          -0.7867   -1.0751   -1.0566 C.ar    1  UNL11      -0.0229
     24 C          -0.0834   -3.8894   -0.2436 C.ar    1  UNL11       0.0410
     25 C           0.6072   -3.3815   -1.3081 C.ar    1  UNL11      -0.0314
     26 C           0.0092   -3.1534   -2.5221 C.ar    1  UNL11       0.0283
     27 N          -1.2866   -3.4176   -2.7261 N.ar    1  UNL11      -0.2632
     28 C          -1.9752   -3.9169   -1.6870 C.ar    1  UNL11       0.0283
     29 C          -1.4320   -4.1662   -0.4494 C.ar    1  UNL11      -0.0314
     30 H           2.0147   -3.6178    2.5099 H       1  UNL11       0.1731
     31 H           3.1790   -2.0853    1.0292 H       1  UNL11       0.1731
     32 H          -0.1017   -3.4854    1.1534 H       1  UNL11       0.0625
     33 H          -2.5299   -3.9424    0.7772 H       1  UNL11       0.0618
     34 H          -3.7877   -2.5661   -0.7609 H       1  UNL11       0.0637
     35 H          -1.0127    1.2060   -2.4362 H       1  UNL11       0.1738
     36 H          -0.7724   -0.0284   -5.2285 H       1  UNL11       0.0637
     37 H          -0.8411    0.8734   -7.4746 H       1  UNL11       0.0618
     38 H          -2.1104    3.0178   -7.8479 H       1  UNL11       0.0618
     39 H          -3.2056    4.0888   -6.0068 H       1  UNL11       0.0647
     40 H          -0.2973   -0.2565   -1.5799 H       1  UNL11       0.0645
     41 H           1.6500   -3.1533   -1.1947 H       1  UNL11       0.0640
     42 H           0.6238   -2.7473   -3.3236 H       1  UNL11       0.0830
     43 H          -3.0387   -4.1326   -1.8606 H       1  UNL11       0.0830
     44 H          -1.9896   -4.5672    0.3826 H       1  UNL11       0.0640
@<TRIPOS>BOND
     1     1     2    2
     2     2     3   am
     3     2    24    1
     4     3     4    1
     5     3    30    1
     6     4     5   am
     7     4    31    1
     8     5     6    2
     9     5     7    1
    10     7     8   ar
    11     8     9   ar
    12     8    32    1
    13     9    10   ar
    14     9    33    1
    15    10    11   ar
    16    10    34    1
    17    11    12    1
    18    11    23   ar
    19    12    13    2
    20    12    14    2
    21    12    15    1
    22    15    16    1
    23    15    35    1
    24    16    17   ar
    25    17    18   ar
    26    17    36    1
    27    18    19   ar
    28    18    37    1
    29    19    20   ar
    30    19    38    1
    31    20    21   ar
    32    20    39    1
    33    21    22    1
    34    21    16   ar
    35    23     7   ar
    36    23    40    1
    37    24    25   ar
    38    25    26   ar
    39    25    41    1
    40    26    27   ar
    41    26    42    1
    42    27    28   ar
    43    28    29   ar
    44    28    43    1
    45    29    24   ar
    46    29    44    1
@<TRIPOS>MOLECULE
*****
 44 46 0 0 0
SMALL
GASTEIGER

@<TRIPOS>ATOM
      1 O           5.2454   -0.3409    0.8496 O.2     1  UNL11      -0.2687
      2 C           4.0038   -0.5191    0.6949 C.2     1  UNL11       0.2602
      3 N           3.5677   -0.8013   -0.6251 N.am    1  UNL11      -0.2301
      4 N           2.2251   -1.0082   -0.9674 N.am    1  UNL11      -0.2301
      5 C           1.3651   -1.5585    0.0131 C.2     1  UNL11       0.2602
      6 O           1.8532   -1.8301    1.1381 O.2     1  UNL11      -0.2687
      7 C          -0.0424   -1.8272   -0.2025 C.ar    1  UNL11       0.0400
      8 C          -0.6723   -2.8587    0.4564 C.ar    1  UNL11      -0.0495
      9 C          -2.0043   -3.1400    0.2757 C.ar    1  UNL11      -0.0592
     10 C          -2.7388   -2.3450   -0.6111 C.ar    1  UNL11      -0.0350
     11 C          -2.1443   -1.3096   -1.2839 C.ar    1  UNL11       0.1092
     12 S          -2.9648   -0.2560   -2.4012 S.O2    1  UNL11       0.0724
     13 O          -2.0399    0.7934   -2.9527 O.2     1  UNL11      -0.1500
     14 O          -4.0438    0.4551   -1.6287 O.2     1  UNL11      -0.1500
     15 N          -3.6154   -1.1954   -3.6796 N.pl3   1  UNL11      -0.2135
     16 C          -3.2723   -1.0309   -5.0408 C.ar    1  UNL11       0.0831
     17 C          -2.2360   -1.7228   -5.6104 C.ar    1  UNL11      -0.0365
     18 C          -1.8563   -1.5887   -6.9351 C.ar    1  UNL11      -0.0598
     19 C          -2.5579   -0.7153   -7.7157 C.ar    1  UNL11      -0.0589
     20 C          -3.6032   -0.0075   -7.1711 C.ar    1  UNL11      -0.0246
     21 C          -3.9621   -0.1551   -5.8580 C.ar    1  UNL11       0.1456
     22 F          -4.9883    0.5440   -5.3325 F       1  UNL11      -0.2035
     23 C          -0.7867   -1.0751   -1.0566 C.ar    1  UNL11      -0.0229
     24 C           3.0818   -0.4325    1.8410 C.ar    1  UNL11       0.0410
     25 C           3.4449   -0.7436    3.1214 C.ar    1  UNL11      -0.0314
     26 C           2.5645   -0.6533    4.1702 C.ar    1  UNL11       0.0283
     27 N           1.2996   -0.2546    3.9916 N.ar    1  UNL11      -0.2632
     28 C           0.9317    0.0535    2.7375 C.ar    1  UNL11       0.0283
     29 C           1.7672   -0.0172    1.6486 C.ar    1  UNL11      -0.0314
     30 H           4.2687   -0.8635   -1.3937 H       1  UNL11       0.1731
     31 H           1.8970   -0.7622   -1.9061 H       1  UNL11       0.1731
     32 H          -0.1017   -3.4854    1.1534 H       1  UNL11       0.0625
     33 H          -2.5299   -3.9424    0.7772 H       1  UNL11       0.0618
     34 H          -3.7877   -2.5661   -0.7609 H       1  UNL11       0.0637
     35 H          -4.3286   -1.9647   -3.4827 H       1  UNL11       0.1738
     36 H          -1.6946   -2.3970   -4.9829 H       1  UNL11       0.0637
     37 H          -1.0186   -2.1828   -7.2980 H       1  UNL11       0.0618
     38 H          -2.2978   -0.5764   -8.7581 H       1  UNL11       0.0618
     39 H          -4.1240    0.6715   -7.8394 H       1  UNL11       0.0647
     40 H          -0.2973   -0.2565   -1.5799 H       1  UNL11       0.0645
     41 H           4.4493   -1.0684    3.3163 H       1  UNL11       0.0640
     42 H           2.9262   -0.9176    5.1623 H       1  UNL11       0.0830
     43 H          -0.1078    0.3810    2.5970 H       1  UNL11       0.0830
     44 H           1.4667    0.2312    0.6426 H       1  UNL11       0.0640
@<TRIPOS>BOND
     1     1     2    2
     2     2     3   am
     3     2    24    1
     4     3     4    1
     5     3    30    1
     6     4     5   am
     7     4    31    1
     8     5     6    2
     9     5     7    1
    10     7     8   ar
    11     8     9   ar
    12     8    32    1
    13     9    10   ar
    14     9    33    1
    15    10    11   ar
    16    10    34    1
    17    11    12    1
    18    11    23   ar
    19    12    13    2
    20    12    14    2
    21    12    15    1
    22    15    16    1
    23    15    35    1
    24    16    17   ar
    25    17    18   ar
    26    17    36    1
    27    18    19   ar
    28    18    37    1
    29    19    20   ar
    30    19    38    1
    31    20    21   ar
    32    20    39    1
    33    21    22    1
    34    21    16   ar
    35    23     7   ar
    36    23    40    1
    37    24    25   ar
    38    25    26   ar
    39    25    41    1
    40    26    27   ar
    41    26    42    1
    42    27    28   ar
    43    28    29   ar
    44    28    43    1
    45    29    24   ar
    46    29    44    1
@<TRIPOS>MOLECULE
*****
 44 46 0 0 0
SMALL
GASTEIGER

@<TRIPOS>ATOM
      1 O          -0.5869   -2.7716    3.4710 O.2     1  UNL11      -0.2687
      2 C          -0.0697   -2.1975    2.4710 C.2     1  UNL11       0.2602
      3 N           1.3197   -2.4054    2.2743 N.am    1  UNL11      -0.2301
      4 N           2.0460   -1.8285    1.2244 N.am    1  UNL11      -0.2301
      5 C           1.3651   -1.5585    0.0131 C.2     1  UNL11       0.2602
      6 O           2.0223   -1.0552   -0.9315 O.2     1  UNL11      -0.2687
      7 C          -0.0424   -1.8272   -0.2025 C.ar    1  UNL11       0.0400
      8 C          -0.6723   -2.8587    0.4564 C.ar    1  UNL11      -0.0495
      9 C          -2.0043   -3.1400    0.2757 C.ar    1  UNL11      -0.0592
     10 C          -2.7388   -2.3450   -0.6111 C.ar    1  UNL11      -0.0350
     11 C          -2.1443   -1.3096   -1.2839 C.ar    1  UNL11       0.1092
     12 S          -2.9648   -0.2560   -2.4012 S.O2    1  UNL11       0.0724
     13 O          -2.9416    1.1726   -1.9329 O.2     1  UNL11      -0.1500
     14 O          -4.4050   -0.6924   -2.4456 O.2     1  UNL11      -0.1500
     15 N          -2.2172   -0.3818   -3.9391 N.pl3   1  UNL11      -0.2135
     16 C          -1.1462    0.4332   -4.3710 C.ar    1  UNL11       0.0831
     17 C           0.1598    0.0744   -4.1644 C.ar    1  UNL11      -0.0365
     18 C           1.2415    0.8428   -4.5601 C.ar    1  UNL11      -0.0598
     19 C           0.9877    2.0260   -5.1924 C.ar    1  UNL11      -0.0589
     20 C          -0.3133    2.4118   -5.4135 C.ar    1  UNL11      -0.0246
     21 C          -1.3688    1.6365   -5.0137 C.ar    1  UNL11       0.1456
     22 F          -2.6414    2.0234   -5.2343 F       1  UNL11      -0.2035
     23 C          -0.7867   -1.0751   -1.0566 C.ar    1  UNL11      -0.0229
     24 C          -0.8888   -1.3629    1.5745 C.ar    1  UNL11       0.0410
     25 C          -2.2276   -1.1569    1.7561 C.ar    1  UNL11      -0.0314
     26 C          -2.9659   -0.3737    0.9047 C.ar    1  UNL11       0.0283
     27 N          -2.4099    0.2305   -0.1519 N.ar    1  UNL11      -0.2632
     28 C          -1.0948    0.0349   -0.3404 C.ar    1  UNL11       0.0283
     29 C          -0.3044   -0.7372    0.4769 C.ar    1  UNL11      -0.0314
     30 H           1.8444   -3.0177    2.9344 H       1  UNL11       0.1731
     31 H           3.0404   -1.6176    1.3511 H       1  UNL11       0.1731
     32 H          -0.1017   -3.4854    1.1534 H       1  UNL11       0.0625
     33 H          -2.5299   -3.9424    0.7772 H       1  UNL11       0.0618
     34 H          -3.7877   -2.5661   -0.7609 H       1  UNL11       0.0637
     35 H          -2.5484   -1.1069   -4.6489 H       1  UNL11       0.1738
     36 H           0.3391   -0.8517   -3.6628 H       1  UNL11       0.0637
     37 H           2.2449    0.4732   -4.3523 H       1  UNL11       0.0618
     38 H           1.8015    2.6613   -5.5203 H       1  UNL11       0.0618
     39 H          -0.4536    3.3615   -5.9206 H       1  UNL11       0.0647
     40 H          -0.2973   -0.2565   -1.5799 H       1  UNL11       0.0645
     41 H          -2.7200   -1.6200    2.5900 H       1  UNL11       0.0640
     42 H          -4.0277   -0.2557    1.1139 H       1  UNL11       0.0830
     43 H          -0.6435    0.5341   -1.2091 H       1  UNL11       0.0830
     44 H           0.7519   -0.8915    0.3211 H       1  UNL11       0.0640
@<TRIPOS>BOND
     1     1     2    2
     2     2     3   am
     3     2    24    1
     4     3     4    1
     5     3    30    1
     6     4     5   am
     7     4    31    1
     8     5     6    2
     9     5     7    1
    10     7     8   ar
    11     8     9   ar
    12     8    32    1
    13     9    10   ar
    14     9    33    1
    15    10    11   ar
    16    10    34    1
    17    11    12    1
    18    11    23   ar
    19    12    13    2
    20    12    14    2
    21    12    15    1
    22    15    16    1
    23    15    35    1
    24    16    17   ar
    25    17    18   ar
    26    17    36    1
    27    18    19   ar
    28    18    37    1
    29    19    20   ar
    30    19    38    1
    31    20    21   ar
    32    20    39    1
    33    21    22    1
    34    21    16   ar
    35    23     7   ar
    36    23    40    1
    37    24    25   ar
    38    25    26   ar
    39    25    41    1
    40    26    27   ar
    41    26    42    1
    42    27    28   ar
    43    28    29   ar
    44    28    43    1
    45    29    24   ar
    46    29    44    1
@<TRIPOS>MOLECULE
*****
 44 46 0 0 0
SMALL
GASTEIGER

@<TRIPOS>ATOM
      1 O           5.4874   -1.2455    0.3967 O.2     1  UNL11      -0.2687
      2 C           4.2774   -1.5349    0.1752 C.2     1  UNL11       0.2602
      3 N           3.4099   -1.5170    1.2974 N.am    1  UNL11      -0.2301
      4 N           2.0460   -1.8285    1.2244 N.am    1  UNL11      -0.2301
      5 C           1.3651   -1.5585    0.0131 C.2     1  UNL11       0.2602
      6 O           2.0223   -1.0552   -0.9315 O.2     1  UNL11      -0.2687
      7 C          -0.0424   -1.8272   -0.2025 C.ar    1  UNL11       0.0400
      8 C          -0.6723   -2.8587    0.4564 C.ar    1  UNL11      -0.0495
      9 C          -2.0043   -3.1400    0.2757 C.ar    1  UNL11      -0.0592
     10 C          -2.7388   -2.3450   -0.6111 C.ar    1  UNL11      -0.0350
     11 C          -2.1443   -1.3096   -1.2839 C.ar    1  UNL11       0.1092
     12 S          -2.9648   -0.2560   -2.4012 S.O2    1  UNL11       0.0724
     13 O          -2.3851    1.1312   -2.3806 O.2     1  UNL11      -0.1500
     14 O          -4.3956   -0.1534   -1.9442 O.2     1  UNL11      -0.1500
     15 N          -2.8497   -0.9169   -3.9792 N.pl3   1  UNL11      -0.2135
     16 C          -2.8200   -0.1458   -5.1633 C.ar    1  UNL11       0.0831
     17 C          -1.6414    0.2927   -5.7071 C.ar    1  UNL11      -0.0365
     18 C          -1.5619    1.0576   -6.8585 C.ar    1  UNL11      -0.0598
     19 C          -2.7279    1.3921   -7.4853 C.ar    1  UNL11      -0.0589
     20 C          -3.9259    0.9657   -6.9625 C.ar    1  UNL11      -0.0246
     21 C          -3.9820    0.2099   -5.8220 C.ar    1  UNL11       0.1456
     22 F          -5.1617   -0.2031   -5.3163 F       1  UNL11      -0.2035
     23 C          -0.7867   -1.0751   -1.0566 C.ar    1  UNL11      -0.0229
     24 C           3.8195   -1.8690   -1.1850 C.ar    1  UNL11       0.0410
     25 C           4.3961   -1.3632   -2.3162 C.ar    1  UNL11      -0.0314
     26 C           3.9486   -1.6924   -3.5711 C.ar    1  UNL11       0.0283
     27 N           2.9200   -2.5290   -3.7517 N.ar    1  UNL11      -0.2632
     28 C           2.3455   -3.0319   -2.6471 C.ar    1  UNL11       0.0283
     29 C           2.7487   -2.7397   -1.3661 C.ar    1  UNL11      -0.0314
     30 H           3.7886   -1.2595    2.2334 H       1  UNL11       0.1731
     31 H           1.5748   -2.2382    2.0366 H       1  UNL11       0.1731
     32 H          -0.1017   -3.4854    1.1534 H       1  UNL11       0.0625
     33 H          -2.5299   -3.9424    0.7772 H       1  UNL11       0.0618
     34 H          -3.7877   -2.5661   -0.7609 H       1  UNL11       0.0637
     35 H          -2.7951   -1.9728   -4.1255 H       1  UNL11       0.1738
     36 H          -0.7397    0.0265   -5.1997 H       1  UNL11       0.0637
     37 H          -0.5777    1.3586   -7.2151 H       1  UNL11       0.0618
     38 H          -2.7161    1.9892   -8.3891 H       1  UNL11       0.0618
     39 H          -4.8193    1.2619   -7.5037 H       1  UNL11       0.0647
     40 H          -0.2973   -0.2565   -1.5799 H       1  UNL11       0.0645
     41 H           5.2253   -0.6877   -2.2240 H       1  UNL11       0.0640
     42 H           4.4583   -1.2500   -4.4253 H       1  UNL11       0.0830
     43 H           1.5018   -3.7189   -2.8015 H       1  UNL11       0.0830
     44 H           2.2837   -3.1463   -0.4816 H       1  UNL11       0.0640
@<TRIPOS>BOND
     1     1     2    2
     2     2     3   am
     3     2    24    1
     4     3     4    1
     5     3    30    1
     6     4     5   am
     7     4    31    1
     8     5     6    2
     9     5     7    1
    10     7     8   ar
    11     8     9   ar
    12     8    32    1
    13     9    10   ar
    14     9    33    1
    15    10    11   ar
    16    10    34    1
    17    11    12    1
    18    11    23   ar
    19    12    13    2
    20    12    14    2
    21    12    15    1
    22    15    16    1
    23    15    35    1
    24    16    17   ar
    25    17    18   ar
    26    17    36    1
    27    18    19   ar
    28    18    37    1
    29    19    20   ar
    30    19    38    1
    31    20    21   ar
    32    20    39    1
    33    21    22    1
    34    21    16   ar
    35    23     7   ar
    36    23    40    1
    37    24    25   ar
    38    25    26   ar
    39    25    41    1
    40    26    27   ar
    41    26    42    1
    42    27    28   ar
    43    28    29   ar
    44    28    43    1
    45    29    24   ar
    46    29    44    1
@<TRIPOS>MOLECULE
*****
 44 46 0 0 0
SMALL
GASTEIGER

@<TRIPOS>ATOM
      1 O           0.8786   -2.7798    4.4803 O.2     1  UNL11      -0.2687
      2 C           1.6112   -2.1791    3.6439 C.2     1  UNL11       0.2602
      3 N           1.3197   -2.4054    2.2743 N.am    1  UNL11      -0.2301
      4 N           2.0460   -1.8285    1.2244 N.am    1  UNL11      -0.2301
      5 C           1.3651   -1.5585    0.0131 C.2     1  UNL11       0.2602
      6 O           2.0223   -1.0552   -0.9315 O.2     1  UNL11      -0.2687
      7 C          -0.0424   -1.8272   -0.2025 C.ar    1  UNL11       0.0400
      8 C          -0.6723   -2.8587    0.4564 C.ar    1  UNL11      -0.0495
      9 C          -2.0043   -3.1400    0.2757 C.ar    1  UNL11      -0.0592
     10 C          -2.7388   -2.3450   -0.6111 C.ar    1  UNL11      -0.0350
     11 C          -2.1443   -1.3096   -1.2839 C.ar    1  UNL11       0.1092
     12 S          -2.9648   -0.2560   -2.4012 S.O2    1  UNL11       0.0724
     13 O          -2.3280   -0.2901   -3.7629 O.2     1  UNL11      -0.1500
     14 O          -2.8237    1.1466   -1.8726 O.2     1  UNL11      -0.1500
     15 N          -4.6092   -0.7293   -2.5103 N.pl3   1  UNL11      -0.2135
     16 C          -5.1059   -1.6672   -3.4438 C.ar    1  UNL11       0.0831
     17 C          -5.1678   -3.0053   -3.1561 C.ar    1  UNL11      -0.0365
     18 C          -5.6368   -3.9622   -4.0400 C.ar    1  UNL11      -0.0598
     19 C          -6.0611   -3.5441   -5.2685 C.ar    1  UNL11      -0.0589
     20 C          -6.0108   -2.2071   -5.5850 C.ar    1  UNL11      -0.0246
     21 C          -5.5430   -1.2769   -4.6957 C.ar    1  UNL11       0.1456
     22 F          -5.4968    0.0322   -5.0152 F       1  UNL11      -0.2035
     23 C          -0.7867   -1.0751   -1.0566 C.ar    1  UNL11      -0.0229
     24 C           2.7022   -1.2972    4.0948 C.ar    1  UNL11       0.0410
     25 C           3.8523   -1.1021    3.3826 C.ar    1  UNL11      -0.0314
     26 C           4.8523   -0.2740    3.8271 C.ar    1  UNL11       0.0283
     27 N           4.7519    0.3872    4.9862 N.ar    1  UNL11      -0.2632
     28 C           3.6261    0.2028    5.6945 C.ar    1  UNL11       0.0283
     29 C           2.5917   -0.6123    5.3016 C.ar    1  UNL11      -0.0314
     30 H           0.5261   -3.0294    2.0159 H       1  UNL11       0.1731
     31 H           3.0404   -1.6176    1.3511 H       1  UNL11       0.1731
     32 H          -0.1017   -3.4854    1.1534 H       1  UNL11       0.0625
     33 H          -2.5299   -3.9424    0.7772 H       1  UNL11       0.0618
     34 H          -3.7877   -2.5661   -0.7609 H       1  UNL11       0.0637
     35 H          -5.3406   -0.3155   -1.8521 H       1  UNL11       0.1738
     36 H          -4.8259   -3.3147   -2.1923 H       1  UNL11       0.0637
     37 H          -5.6484   -5.0034   -3.7201 H       1  UNL11       0.0618
     38 H          -6.4363   -4.2560   -5.9938 H       1  UNL11       0.0618
     39 H          -6.3615   -1.9339   -6.5756 H       1  UNL11       0.0647
     40 H          -0.2973   -0.2565   -1.5799 H       1  UNL11       0.0645
     41 H           3.9803   -1.6102    2.4458 H       1  UNL11       0.0640
     42 H           5.7394   -0.1682    3.2050 H       1  UNL11       0.0830
     43 H           3.5489    0.7489    6.6450 H       1  UNL11       0.0830
     44 H           1.6891   -0.7574    5.8745 H       1  UNL11       0.0640
@<TRIPOS>BOND
     1     1     2    2
     2     2     3   am
     3     2    24    1
     4     3     4    1
     5     3    30    1
     6     4     5   am
     7     4    31    1
     8     5     6    2
     9     5     7    1
    10     7     8   ar
    11     8     9   ar
    12     8    32    1
    13     9    10   ar
    14     9    33    1
    15    10    11   ar
    16    10    34    1
    17    11    12    1
    18    11    23   ar
    19    12    13    2
    20    12    14    2
    21    12    15    1
    22    15    16    1
    23    15    35    1
    24    16    17   ar
    25    17    18   ar
    26    17    36    1
    27    18    19   ar
    28    18    37    1
    29    19    20   ar
    30    19    38    1
    31    20    21   ar
    32    20    39    1
    33    21    22    1
    34    21    16   ar
    35    23     7   ar
    36    23    40    1
    37    24    25   ar
    38    25    26   ar
    39    25    41    1
    40    26    27   ar
    41    26    42    1
    42    27    28   ar
    43    28    29   ar
    44    28    43    1
    45    29    24   ar
    46    29    44    1
@<TRIPOS>MOLECULE
*****
 44 46 0 0 0
SMALL
GASTEIGER

@<TRIPOS>ATOM
      1 O           3.1061   -2.4314    3.6918 O.2     1  UNL11      -0.2687
      2 C           1.8828   -2.7102    3.5400 C.2     1  UNL11       0.2602
      3 N           1.3197   -2.4054    2.2743 N.am    1  UNL11      -0.2301
      4 N           2.0460   -1.8285    1.2244 N.am    1  UNL11      -0.2301
      5 C           1.3651   -1.5585    0.0131 C.2     1  UNL11       0.2602
      6 O           2.0223   -1.0552   -0.9315 O.2     1  UNL11      -0.2687
      7 C          -0.0424   -1.8272   -0.2025 C.ar    1  UNL11       0.0400
      8 C          -0.6723   -2.8587    0.4564 C.ar    1  UNL11      -0.0495
      9 C          -2.0043   -3.1400    0.2757 C.ar    1  UNL11      -0.0592
     10 C          -2.7388   -2.3450   -0.6111 C.ar    1  UNL11      -0.0350
     11 C          -2.1443   -1.3096   -1.2839 C.ar    1  UNL11       0.1092
     12 S          -2.9648   -0.2560   -2.4012 S.O2    1  UNL11       0.0724
     13 O          -3.5240   -1.0178   -3.5707 O.2     1  UNL11      -0.1500
     14 O          -1.9385    0.7055   -2.9387 O.2     1  UNL11      -0.1500
     15 N          -4.2262    0.5604   -1.5753 N.pl3   1  UNL11      -0.2135
     16 C          -5.5507    0.0779   -1.4715 C.ar    1  UNL11       0.0831
     17 C          -6.5079    0.3984   -2.3979 C.ar    1  UNL11      -0.0365
     18 C          -7.8192   -0.0413   -2.3342 C.ar    1  UNL11      -0.0598
     19 C          -8.1750   -0.8403   -1.2857 C.ar    1  UNL11      -0.0589
     20 C          -7.2353   -1.1785   -0.3408 C.ar    1  UNL11      -0.0246
     21 C          -5.9433   -0.7324   -0.4229 C.ar    1  UNL11       0.1456
     22 F          -5.0288   -1.0688    0.5090 F       1  UNL11      -0.2035
     23 C          -0.7867   -1.0751   -1.0566 C.ar    1  UNL11      -0.0229
     24 C           1.1073   -3.3184    4.6354 C.ar    1  UNL11       0.0410
     25 C           1.6601   -4.1317    5.5846 C.ar    1  UNL11      -0.0314
     26 C           0.9131   -4.6845    6.5944 C.ar    1  UNL11       0.0283
     27 N          -0.4008   -4.4545    6.7013 N.ar    1  UNL11      -0.2632
     28 C          -0.9547   -3.6569    5.7739 C.ar    1  UNL11       0.0283
     29 C          -0.2592   -3.0754    4.7410 C.ar    1  UNL11      -0.0314
     30 H           0.3138   -2.6129    2.0979 H       1  UNL11       0.1731
     31 H           3.0404   -1.6176    1.3511 H       1  UNL11       0.1731
     32 H          -0.1017   -3.4854    1.1534 H       1  UNL11       0.0625
     33 H          -2.5299   -3.9424    0.7772 H       1  UNL11       0.0618
     34 H          -3.7877   -2.5661   -0.7609 H       1  UNL11       0.0637
     35 H          -4.0468    1.4961   -1.0939 H       1  UNL11       0.1738
     36 H          -6.2127    1.0294   -3.2080 H       1  UNL11       0.0637
     37 H          -8.5088    0.2661   -3.1193 H       1  UNL11       0.0618
     38 H          -9.1895   -1.2088   -1.1931 H       1  UNL11       0.0618
     39 H          -7.5759   -1.8161    0.4693 H       1  UNL11       0.0647
     40 H          -0.2973   -0.2565   -1.5799 H       1  UNL11       0.0645
     41 H           2.7111   -4.3464    5.5423 H       1  UNL11       0.0640
     42 H           1.4233   -5.3222    7.3142 H       1  UNL11       0.0830
     43 H          -2.0338   -3.4710    5.8671 H       1  UNL11       0.0830
     44 H          -0.7089   -2.4353    3.9980 H       1  UNL11       0.0640
@<TRIPOS>BOND
     1     1     2    2
     2     2     3   am
     3     2    24    1
     4     3     4    1
     5     3    30    1
     6     4     5   am
     7     4    31    1
     8     5     6    2
     9     5     7    1
    10     7     8   ar
    11     8     9   ar
    12     8    32    1
    13     9    10   ar
    14     9    33    1
    15    10    11   ar
    16    10    34    1
    17    11    12    1
    18    11    23   ar
    19    12    13    2
    20    12    14    2
    21    12    15    1
    22    15    16    1
    23    15    35    1
    24    16    17   ar
    25    17    18   ar
    26    17    36    1
    27    18    19   ar
    28    18    37    1
    29    19    20   ar
    30    19    38    1
    31    20    21   ar
    32    20    39    1
    33    21    22    1
    34    21    16   ar
    35    23     7   ar
    36    23    40    1
    37    24    25   ar
    38    25    26   ar
    39    25    41    1
    40    26    27   ar
    41    26    42    1
    42    27    28   ar
    43    28    29   ar
    44    28    43    1
    45    29    24   ar
    46    29    44    1
@<TRIPOS>MOLECULE
*****
 44 46 0 0 0
SMALL
GASTEIGER

@<TRIPOS>ATOM
      1 O          -0.5869   -2.7716    3.4710 O.2     1  UNL11      -0.2687
      2 C          -0.0697   -2.1975    2.4710 C.2     1  UNL11       0.2602
      3 N           1.3197   -2.4054    2.2743 N.am    1  UNL11      -0.2301
      4 N           2.0460   -1.8285    1.2244 N.am    1  UNL11      -0.2301
      5 C           1.3651   -1.5585    0.0131 C.2     1  UNL11       0.2602
      6 O           2.0223   -1.0552   -0.9315 O.2     1  UNL11      -0.2687
      7 C          -0.0424   -1.8272   -0.2025 C.ar    1  UNL11       0.0400
      8 C          -0.6723   -2.8587    0.4564 C.ar    1  UNL11      -0.0495
      9 C          -2.0043   -3.1400    0.2757 C.ar    1  UNL11      -0.0592
     10 C          -2.7388   -2.3450   -0.6111 C.ar    1  UNL11      -0.0350
     11 C          -2.1443   -1.3096   -1.2839 C.ar    1  UNL11       0.1092
     12 S          -2.9648   -0.2560   -2.4012 S.O2    1  UNL11       0.0724
     13 O          -2.3280   -0.2901   -3.7629 O.2     1  UNL11      -0.1500
     14 O          -2.8237    1.1466   -1.8726 O.2     1  UNL11      -0.1500
     15 N          -4.6092   -0.7293   -2.5103 N.pl3   1  UNL11      -0.2135
     16 C          -5.5076   -0.7379   -1.4192 C.ar    1  UNL11       0.0831
     17 C          -6.2713    0.3560   -1.1072 C.ar    1  UNL11      -0.0365
     18 C          -7.1572    0.3990   -0.0441 C.ar    1  UNL11      -0.0598
     19 C          -7.2737   -0.7153    0.7362 C.ar    1  UNL11      -0.0589
     20 C          -6.5200   -1.8282    0.4468 C.ar    1  UNL11      -0.0246
     21 C          -5.6492   -1.8494   -0.6098 C.ar    1  UNL11       0.1456
     22 F          -4.9136   -2.9452   -0.8855 F       1  UNL11      -0.2035
     23 C          -0.7867   -1.0751   -1.0566 C.ar    1  UNL11      -0.0229
     24 C          -0.8888   -1.3629    1.5745 C.ar    1  UNL11       0.0410
     25 C          -2.2199   -1.5811    1.3541 C.ar    1  UNL11      -0.0314
     26 C          -2.9585   -0.7868    0.5134 C.ar    1  UNL11       0.0283
     27 N          -2.4103    0.2463   -0.1368 N.ar    1  UNL11      -0.2632
     28 C          -1.1028    0.4700    0.0719 C.ar    1  UNL11       0.0283
     29 C          -0.3125   -0.2897    0.9008 C.ar    1  UNL11      -0.0314
     30 H           1.8444   -3.0177    2.9344 H       1  UNL11       0.1731
     31 H           3.0404   -1.6176    1.3511 H       1  UNL11       0.1731
     32 H          -0.1017   -3.4854    1.1534 H       1  UNL11       0.0625
     33 H          -2.5299   -3.9424    0.7772 H       1  UNL11       0.0618
     34 H          -3.7877   -2.5661   -0.7609 H       1  UNL11       0.0637
     35 H          -5.0250   -1.0458   -3.4410 H       1  UNL11       0.1738
     36 H          -6.1624    1.2208   -1.7251 H       1  UNL11       0.0637
     37 H          -7.7221    1.3150    0.1244 H       1  UNL11       0.0618
     38 H          -7.9537   -0.7292    1.5793 H       1  UNL11       0.0618
     39 H          -6.6548   -2.6838    1.1014 H       1  UNL11       0.0647
     40 H          -0.2973   -0.2565   -1.5799 H       1  UNL11       0.0645
     41 H          -2.7060   -2.3978    1.8531 H       1  UNL11       0.0640
     42 H          -4.0140   -1.0221    0.3879 H       1  UNL11       0.0830
     43 H          -0.6582    1.3201   -0.4640 H       1  UNL11       0.0830
     44 H           0.7379   -0.1061    1.0651 H       1  UNL11       0.0640
@<TRIPOS>BOND
     1     1     2    2
     2     2     3   am
     3     2    24    1
     4     3     4    1
     5     3    30    1
     6     4     5   am
     7     4    31    1
     8     5     6    2
     9     5     7    1
    10     7     8   ar
    11     8     9   ar
    12     8    32    1
    13     9    10   ar
    14     9    33    1
    15    10    11   ar
    16    10    34    1
    17    11    12    1
    18    11    23   ar
    19    12    13    2
    20    12    14    2
    21    12    15    1
    22    15    16    1
    23    15    35    1
    24    16    17   ar
    25    17    18   ar
    26    17    36    1
    27    18    19   ar
    28    18    37    1
    29    19    20   ar
    30    19    38    1
    31    20    21   ar
    32    20    39    1
    33    21    22    1
    34    21    16   ar
    35    23     7   ar
    36    23    40    1
    37    24    25   ar
    38    25    26   ar
    39    25    41    1
    40    26    27   ar
    41    26    42    1
    42    27    28   ar
    43    28    29   ar
    44    28    43    1
    45    29    24   ar
    46    29    44    1
@<TRIPOS>MOLECULE
*****
 44 46 0 0 0
SMALL
GASTEIGER

@<TRIPOS>ATOM
      1 O          -0.5869   -2.7716    3.4710 O.2     1  UNL11      -0.2687
      2 C          -0.0697   -2.1975    2.4710 C.2     1  UNL11       0.2602
      3 N           1.3197   -2.4054    2.2743 N.am    1  UNL11      -0.2301
      4 N           2.0460   -1.8285    1.2244 N.am    1  UNL11      -0.2301
      5 C           1.3651   -1.5585    0.0131 C.2     1  UNL11       0.2602
      6 O           2.0223   -1.0552   -0.9315 O.2     1  UNL11      -0.2687
      7 C          -0.0424   -1.8272   -0.2025 C.ar    1  UNL11       0.0400
      8 C          -0.6723   -2.8587    0.4564 C.ar    1  UNL11      -0.0495
      9 C          -2.0043   -3.1400    0.2757 C.ar    1  UNL11      -0.0592
     10 C          -2.7388   -2.3450   -0.6111 C.ar    1  UNL11      -0.0350
     11 C          -2.1443   -1.3096   -1.2839 C.ar    1  UNL11       0.1092
     12 S          -2.9648   -0.2560   -2.4012 S.O2    1  UNL11       0.0724
     13 O          -4.0768   -0.9694   -3.1191 O.2     1  UNL11      -0.1500
     14 O          -1.9559    0.1637   -3.4369 O.2     1  UNL11      -0.1500
     15 N          -3.5892    1.0907   -1.5430 N.pl3   1  UNL11      -0.2135
     16 C          -2.7953    2.0098   -0.8200 C.ar    1  UNL11       0.0831
     17 C          -2.2894    3.1403   -1.4058 C.ar    1  UNL11      -0.0365
     18 C          -1.4999    4.0642   -0.7425 C.ar    1  UNL11      -0.0598
     19 C          -1.2110    3.8314    0.5715 C.ar    1  UNL11      -0.0589
     20 C          -1.7052    2.7051    1.1858 C.ar    1  UNL11      -0.0246
     21 C          -2.4843    1.8038    0.5109 C.ar    1  UNL11       0.1456
     22 F          -2.9640    0.7015    1.1216 F       1  UNL11      -0.2035
     23 C          -0.7867   -1.0751   -1.0566 C.ar    1  UNL11      -0.0229
     24 C          -0.8888   -1.3629    1.5745 C.ar    1  UNL11       0.0410
     25 C          -2.2199   -1.5811    1.3541 C.ar    1  UNL11      -0.0314
     26 C          -2.9585   -0.7868    0.5134 C.ar    1  UNL11       0.0283
     27 N          -2.4103    0.2463   -0.1368 N.ar    1  UNL11      -0.2632
     28 C          -1.1028    0.4700    0.0719 C.ar    1  UNL11       0.0283
     29 C          -0.3125   -0.2897    0.9008 C.ar    1  UNL11      -0.0314
     30 H           1.8444   -3.0177    2.9344 H       1  UNL11       0.1731
     31 H           3.0404   -1.6176    1.3511 H       1  UNL11       0.1731
     32 H          -0.1017   -3.4854    1.1534 H       1  UNL11       0.0625
     33 H          -2.5299   -3.9424    0.7772 H       1  UNL11       0.0618
     34 H          -3.7877   -2.5661   -0.7609 H       1  UNL11       0.0637
     35 H          -4.6382    1.2872   -1.5250 H       1  UNL11       0.1738
     36 H          -2.5208    3.3027   -2.4361 H       1  UNL11       0.0637
     37 H          -1.1444    4.9341   -1.2932 H       1  UNL11       0.0618
     38 H          -0.5970    4.5258    1.1322 H       1  UNL11       0.0618
     39 H          -1.4428    2.5731    2.2311 H       1  UNL11       0.0647
     40 H          -0.2973   -0.2565   -1.5799 H       1  UNL11       0.0645
     41 H          -2.7060   -2.3978    1.8531 H       1  UNL11       0.0640
     42 H          -4.0140   -1.0221    0.3879 H       1  UNL11       0.0830
     43 H          -0.6582    1.3201   -0.4640 H       1  UNL11       0.0830
     44 H           0.7379   -0.1061    1.0651 H       1  UNL11       0.0640
@<TRIPOS>BOND
     1     1     2    2
     2     2     3   am
     3     2    24    1
     4     3     4    1
     5     3    30    1
     6     4     5   am
     7     4    31    1
     8     5     6    2
     9     5     7    1
    10     7     8   ar
    11     8     9   ar
    12     8    32    1
    13     9    10   ar
    14     9    33    1
    15    10    11   ar
    16    10    34    1
    17    11    12    1
    18    11    23   ar
    19    12    13    2
    20    12    14    2
    21    12    15    1
    22    15    16    1
    23    15    35    1
    24    16    17   ar
    25    17    18   ar
    26    17    36    1
    27    18    19   ar
    28    18    37    1
    29    19    20   ar
    30    19    38    1
    31    20    21   ar
    32    20    39    1
    33    21    22    1
    34    21    16   ar
    35    23     7   ar
    36    23    40    1
    37    24    25   ar
    38    25    26   ar
    39    25    41    1
    40    26    27   ar
    41    26    42    1
    42    27    28   ar
    43    28    29   ar
    44    28    43    1
    45    29    24   ar
    46    29    44    1
@<TRIPOS>MOLECULE
*****
 44 46 0 0 0
SMALL
GASTEIGER

@<TRIPOS>ATOM
      1 O          -0.6031    0.0759   -0.3810 O.2     1  UNL11      -0.2687
      2 C          -0.0084    0.6222   -1.3531 C.2     1  UNL11       0.2602
      3 N           1.3735    0.3323   -1.4892 N.am    1  UNL11      -0.2301
      4 N           2.0760   -0.5087   -0.6164 N.am    1  UNL11      -0.2301
      5 C           1.3651   -1.5585    0.0131 C.2     1  UNL11       0.2602
      6 O           1.9940   -2.3017    0.8066 O.2     1  UNL11      -0.2687
      7 C          -0.0424   -1.8272   -0.2025 C.ar    1  UNL11       0.0400
      8 C          -0.6723   -2.8587    0.4564 C.ar    1  UNL11      -0.0495
      9 C          -2.0043   -3.1400    0.2757 C.ar    1  UNL11      -0.0592
     10 C          -2.7388   -2.3450   -0.6111 C.ar    1  UNL11      -0.0350
     11 C          -2.1443   -1.3096   -1.2839 C.ar    1  UNL11       0.1092
     12 S          -2.9648   -0.2560   -2.4012 S.O2    1  UNL11       0.0724
     13 O          -2.3280   -0.2901   -3.7629 O.2     1  UNL11      -0.1500
     14 O          -2.8237    1.1466   -1.8726 O.2     1  UNL11      -0.1500
     15 N          -4.6092   -0.7293   -2.5103 N.pl3   1  UNL11      -0.2135
     16 C          -5.5076   -0.7379   -1.4192 C.ar    1  UNL11       0.0831
     17 C          -6.2713    0.3560   -1.1072 C.ar    1  UNL11      -0.0365
     18 C          -7.1572    0.3990   -0.0441 C.ar    1  UNL11      -0.0598
     19 C          -7.2737   -0.7153    0.7362 C.ar    1  UNL11      -0.0589
     20 C          -6.5200   -1.8282    0.4468 C.ar    1  UNL11      -0.0246
     21 C          -5.6492   -1.8494   -0.6098 C.ar    1  UNL11       0.1456
     22 F          -4.9136   -2.9452   -0.8855 F       1  UNL11      -0.2035
     23 C          -0.7867   -1.0751   -1.0566 C.ar    1  UNL11      -0.0229
     24 C          -0.7354    1.5078   -2.2795 C.ar    1  UNL11       0.0410
     25 C          -1.8153    2.2586   -1.9079 C.ar    1  UNL11      -0.0314
     26 C          -2.4733    3.0756   -2.7927 C.ar    1  UNL11       0.0283
     27 N          -2.0894    3.1788   -4.0705 N.ar    1  UNL11      -0.2632
     28 C          -1.0294    2.4454   -4.4469 C.ar    1  UNL11       0.0283
     29 C          -0.3312    1.6106   -3.6076 C.ar    1  UNL11      -0.0314
     30 H           1.9116    0.7595   -2.2727 H       1  UNL11       0.1731
     31 H           3.0746   -0.3496   -0.4523 H       1  UNL11       0.1731
     32 H          -0.1017   -3.4854    1.1534 H       1  UNL11       0.0625
     33 H          -2.5299   -3.9424    0.7772 H       1  UNL11       0.0618
     34 H          -3.7877   -2.5661   -0.7609 H       1  UNL11       0.0637
     35 H          -5.0250   -1.0458   -3.4410 H       1  UNL11       0.1738
     36 H          -6.1624    1.2208   -1.7251 H       1  UNL11       0.0637
     37 H          -7.7221    1.3150    0.1244 H       1  UNL11       0.0618
     38 H          -7.9537   -0.7292    1.5793 H       1  UNL11       0.0618
     39 H          -6.6548   -2.6838    1.1014 H       1  UNL11       0.0647
     40 H          -0.2973   -0.2565   -1.5799 H       1  UNL11       0.0645
     41 H          -2.1618    2.2106   -0.8930 H       1  UNL11       0.0640
     42 H          -3.3253    3.6437   -2.4236 H       1  UNL11       0.0830
     43 H          -0.7183    2.5347   -5.4970 H       1  UNL11       0.0830
     44 H           0.5199    1.0230   -3.9148 H       1  UNL11       0.0640
@<TRIPOS>BOND
     1     1     2    2
     2     2     3   am
     3     2    24    1
     4     3     4    1
     5     3    30    1
     6     4     5   am
     7     4    31    1
     8     5     6    2
     9     5     7    1
    10     7     8   ar
    11     8     9   ar
    12     8    32    1
    13     9    10   ar
    14     9    33    1
    15    10    11   ar
    16    10    34    1
    17    11    12    1
    18    11    23   ar
    19    12    13    2
    20    12    14    2
    21    12    15    1
    22    15    16    1
    23    15    35    1
    24    16    17   ar
    25    17    18   ar
    26    17    36    1
    27    18    19   ar
    28    18    37    1
    29    19    20   ar
    30    19    38    1
    31    20    21   ar
    32    20    39    1
    33    21    22    1
    34    21    16   ar
    35    23     7   ar
    36    23    40    1
    37    24    25   ar
    38    25    26   ar
    39    25    41    1
    40    26    27   ar
    41    26    42    1
    42    27    28   ar
    43    28    29   ar
    44    28    43    1
    45    29    24   ar
    46    29    44    1
@<TRIPOS>MOLECULE
*****
 44 46 0 0 0
SMALL
GASTEIGER

@<TRIPOS>ATOM
      1 O          -0.1066   -1.2921   -2.0989 O.2     1  UNL11      -0.2687
      2 C           0.2504   -0.0888   -2.2465 C.2     1  UNL11       0.2602
      3 N           1.3735    0.3323   -1.4892 N.am    1  UNL11      -0.2301
      4 N           2.0760   -0.5087   -0.6164 N.am    1  UNL11      -0.2301
      5 C           1.3651   -1.5585    0.0131 C.2     1  UNL11       0.2602
      6 O           1.9940   -2.3017    0.8066 O.2     1  UNL11      -0.2687
      7 C          -0.0424   -1.8272   -0.2025 C.ar    1  UNL11       0.0400
      8 C          -0.6723   -2.8587    0.4564 C.ar    1  UNL11      -0.0495
      9 C          -2.0043   -3.1400    0.2757 C.ar    1  UNL11      -0.0592
     10 C          -2.7388   -2.3450   -0.6111 C.ar    1  UNL11      -0.0350
     11 C          -2.1443   -1.3096   -1.2839 C.ar    1  UNL11       0.1092
     12 S          -2.9648   -0.2560   -2.4012 S.O2    1  UNL11       0.0724
     13 O          -4.4067   -0.6465   -2.5725 O.2     1  UNL11      -0.1500
     14 O          -2.2921   -0.4179   -3.7383 O.2     1  UNL11      -0.1500
     15 N          -2.8576    1.3569   -1.8293 N.pl3   1  UNL11      -0.2135
     16 C          -2.7722    1.7118   -0.4639 C.ar    1  UNL11       0.0831
     17 C          -1.5655    1.8426    0.1715 C.ar    1  UNL11      -0.0365
     18 C          -1.4312    2.1786    1.5080 C.ar    1  UNL11      -0.0598
     19 C          -2.5697    2.3909    2.2311 C.ar    1  UNL11      -0.0589
     20 C          -3.7949    2.2669    1.6197 C.ar    1  UNL11      -0.0246
     21 C          -3.9052    1.9334    0.2962 C.ar    1  UNL11       0.1456
     22 F          -5.1112    1.8134   -0.2947 F       1  UNL11      -0.2035
     23 C          -0.7867   -1.0751   -1.0566 C.ar    1  UNL11      -0.0229
     24 C          -0.4786    0.8063   -3.1622 C.ar    1  UNL11       0.0410
     25 C          -0.5855    2.1547   -2.9664 C.ar    1  UNL11      -0.0314
     26 C          -1.2710    2.9647   -3.8367 C.ar    1  UNL11       0.0283
     27 N          -1.8728    2.4730   -4.9261 N.ar    1  UNL11      -0.2632
     28 C          -1.7744    1.1491   -5.1285 C.ar    1  UNL11       0.0283
     29 C          -1.1026    0.2886   -4.2936 C.ar    1  UNL11      -0.0314
     30 H           1.7074    1.3160   -1.5721 H       1  UNL11       0.1731
     31 H           3.0746   -0.3496   -0.4523 H       1  UNL11       0.1731
     32 H          -0.1017   -3.4854    1.1534 H       1  UNL11       0.0625
     33 H          -2.5299   -3.9424    0.7772 H       1  UNL11       0.0618
     34 H          -3.7877   -2.5661   -0.7609 H       1  UNL11       0.0637
     35 H          -2.8519    2.1780   -2.5112 H       1  UNL11       0.1738
     36 H          -0.6857    1.6668   -0.4085 H       1  UNL11       0.0637
     37 H          -0.4281    2.2599    1.9248 H       1  UNL11       0.0618
     38 H          -2.5150    2.6557    3.2801 H       1  UNL11       0.0618
     39 H          -4.6644    2.4476    2.2443 H       1  UNL11       0.0647
     40 H          -0.2973   -0.2565   -1.5799 H       1  UNL11       0.0645
     41 H          -0.1196    2.5974   -2.1066 H       1  UNL11       0.0640
     42 H          -1.3129    4.0296   -3.6149 H       1  UNL11       0.0830
     43 H          -2.2699    0.7511   -6.0249 H       1  UNL11       0.0830
     44 H          -1.0266   -0.7747   -4.4604 H       1  UNL11       0.0640
@<TRIPOS>BOND
     1     1     2    2
     2     2     3   am
     3     2    24    1
     4     3     4    1
     5     3    30    1
     6     4     5   am
     7     4    31    1
     8     5     6    2
     9     5     7    1
    10     7     8   ar
    11     8     9   ar
    12     8    32    1
    13     9    10   ar
    14     9    33    1
    15    10    11   ar
    16    10    34    1
    17    11    12    1
    18    11    23   ar
    19    12    13    2
    20    12    14    2
    21    12    15    1
    22    15    16    1
    23    15    35    1
    24    16    17   ar
    25    17    18   ar
    26    17    36    1
    27    18    19   ar
    28    18    37    1
    29    19    20   ar
    30    19    38    1
    31    20    21   ar
    32    20    39    1
    33    21    22    1
    34    21    16   ar
    35    23     7   ar
    36    23    40    1
    37    24    25   ar
    38    25    26   ar
    39    25    41    1
    40    26    27   ar
    41    26    42    1
    42    27    28   ar
    43    28    29   ar
    44    28    43    1
    45    29    24   ar
    46    29    44    1
@<TRIPOS>MOLECULE
*****
 44 46 0 0 0
SMALL
GASTEIGER

@<TRIPOS>ATOM
      1 O           5.1861    0.9728    0.8357 O.2     1  UNL11      -0.2687
      2 C           3.9303    1.0066    0.6975 C.2     1  UNL11       0.2602
      3 N           3.3252   -0.1547    0.1521 N.am    1  UNL11      -0.2301
      4 N           1.9486   -0.2721   -0.0794 N.am    1  UNL11      -0.2301
      5 C           1.3651   -1.5585    0.0131 C.2     1  UNL11       0.2602
      6 O           2.1143   -2.5250    0.2995 O.2     1  UNL11      -0.2687
      7 C          -0.0424   -1.8272   -0.2025 C.ar    1  UNL11       0.0400
      8 C          -0.6723   -2.8587    0.4564 C.ar    1  UNL11      -0.0495
      9 C          -2.0043   -3.1400    0.2757 C.ar    1  UNL11      -0.0592
     10 C          -2.7388   -2.3450   -0.6111 C.ar    1  UNL11      -0.0350
     11 C          -2.1443   -1.3096   -1.2839 C.ar    1  UNL11       0.1092
     12 S          -2.9648   -0.2560   -2.4012 S.O2    1  UNL11       0.0724
     13 O          -4.0768   -0.9694   -3.1191 O.2     1  UNL11      -0.1500
     14 O          -1.9559    0.1637   -3.4369 O.2     1  UNL11      -0.1500
     15 N          -3.5892    1.0907   -1.5430 N.pl3   1  UNL11      -0.2135
     16 C          -3.9931    1.0524   -0.1891 C.ar    1  UNL11       0.0831
     17 C          -3.1207    1.3300    0.8302 C.ar    1  UNL11      -0.0365
     18 C          -3.4664    1.2962    2.1705 C.ar    1  UNL11      -0.0598
     19 C          -4.7521    0.9667    2.4907 C.ar    1  UNL11      -0.0589
     20 C          -5.6497    0.6834    1.4886 C.ar    1  UNL11      -0.0246
     21 C          -5.2868    0.7225    0.1688 C.ar    1  UNL11       0.1456
     22 F          -6.1739    0.4424   -0.8071 F       1  UNL11      -0.2035
     23 C          -0.7867   -1.0751   -1.0566 C.ar    1  UNL11      -0.0229
     24 C           3.1612    2.2006    1.0899 C.ar    1  UNL11       0.0410
     25 C           3.5461    3.0448    2.0934 C.ar    1  UNL11      -0.0314
     26 C           2.8096    4.1506    2.4373 C.ar    1  UNL11       0.0283
     27 N           1.6716    4.4596    1.8048 N.ar    1  UNL11      -0.2632
     28 C           1.2835    3.6369    0.8170 C.ar    1  UNL11       0.0283
     29 C           1.9780    2.5165    0.4281 C.ar    1  UNL11      -0.0314
     30 H           3.9197   -0.9744   -0.0942 H       1  UNL11       0.1731
     31 H           1.3995    0.5618   -0.3086 H       1  UNL11       0.1731
     32 H          -0.1017   -3.4854    1.1534 H       1  UNL11       0.0625
     33 H          -2.5299   -3.9424    0.7772 H       1  UNL11       0.0618
     34 H          -3.7877   -2.5661   -0.7609 H       1  UNL11       0.0637
     35 H          -3.6983    2.0389   -2.0208 H       1  UNL11       0.1738
     36 H          -2.1175    1.5798    0.5609 H       1  UNL11       0.0637
     37 H          -2.7025    1.5333    2.9100 H       1  UNL11       0.0618
     38 H          -5.0694    0.9270    3.5257 H       1  UNL11       0.0618
     39 H          -6.6570    0.4282    1.8033 H       1  UNL11       0.0647
     40 H          -0.2973   -0.2565   -1.5799 H       1  UNL11       0.0645
     41 H           4.4524    2.8400    2.6310 H       1  UNL11       0.0640
     42 H           3.1798    4.7766    3.2474 H       1  UNL11       0.0830
     43 H           0.3487    3.8960    0.3007 H       1  UNL11       0.0830
     44 H           1.6619    1.8583   -0.3662 H       1  UNL11       0.0640
@<TRIPOS>BOND
     1     1     2    2
     2     2     3   am
     3     2    24    1
     4     3     4    1
     5     3    30    1
     6     4     5   am
     7     4    31    1
     8     5     6    2
     9     5     7    1
    10     7     8   ar
    11     8     9   ar
    12     8    32    1
    13     9    10   ar
    14     9    33    1
    15    10    11   ar
    16    10    34    1
    17    11    12    1
    18    11    23   ar
    19    12    13    2
    20    12    14    2
    21    12    15    1
    22    15    16    1
    23    15    35    1
    24    16    17   ar
    25    17    18   ar
    26    17    36    1
    27    18    19   ar
    28    18    37    1
    29    19    20   ar
    30    19    38    1
    31    20    21   ar
    32    20    39    1
    33    21    22    1
    34    21    16   ar
    35    23     7   ar
    36    23    40    1
    37    24    25   ar
    38    25    26   ar
    39    25    41    1
    40    26    27   ar
    41    26    42    1
    42    27    28   ar
    43    28    29   ar
    44    28    43    1
    45    29    24   ar
    46    29    44    1
@<TRIPOS>MOLECULE
*****
 44 46 0 0 0
SMALL
GASTEIGER

@<TRIPOS>ATOM
      1 O           5.2943   -0.8710    2.4077 O.2     1  UNL11      -0.2687
      2 C           4.0623   -1.1373    2.4984 C.2     1  UNL11       0.2602
      3 N           3.4099   -1.5170    1.2974 N.am    1  UNL11      -0.2301
      4 N           2.0460   -1.8285    1.2244 N.am    1  UNL11      -0.2301
      5 C           1.3651   -1.5585    0.0131 C.2     1  UNL11       0.2602
      6 O           2.0223   -1.0552   -0.9315 O.2     1  UNL11      -0.2687
      7 C          -0.0424   -1.8272   -0.2025 C.ar    1  UNL11       0.0400
      8 C          -0.6723   -2.8587    0.4564 C.ar    1  UNL11      -0.0495
      9 C          -2.0043   -3.1400    0.2757 C.ar    1  UNL11      -0.0592
     10 C          -2.7388   -2.3450   -0.6111 C.ar    1  UNL11      -0.0350
     11 C          -2.1443   -1.3096   -1.2839 C.ar    1  UNL11       0.1092
     12 S          -2.9648   -0.2560   -2.4012 S.O2    1  UNL11       0.0724
     13 O          -4.1123    0.4603   -1.7448 O.2     1  UNL11      -0.1500
     14 O          -3.5385   -1.1243   -3.4892 O.2     1  UNL11      -0.1500
     15 N          -1.8423    0.8808   -3.0238 N.pl3   1  UNL11      -0.2135
     16 C          -0.4609    0.6279   -3.1833 C.ar    1  UNL11       0.0831
     17 C           0.0463    0.1096   -4.3458 C.ar    1  UNL11      -0.0365
     18 C           1.3887   -0.1640   -4.5459 C.ar    1  UNL11      -0.0598
     19 C           2.2540    0.0994   -3.5230 C.ar    1  UNL11      -0.0589
     20 C           1.7734    0.6202   -2.3448 C.ar    1  UNL11      -0.0246
     21 C           0.4413    0.8832   -2.1677 C.ar    1  UNL11       0.1456
     22 F          -0.0208    1.3933   -1.0084 F       1  UNL11      -0.2035
     23 C          -0.7867   -1.0751   -1.0566 C.ar    1  UNL11      -0.0229
     24 C           3.3661   -1.0500    3.7941 C.ar    1  UNL11       0.0410
     25 C           2.0400   -1.3394    3.9545 C.ar    1  UNL11      -0.0314
     26 C           1.4175   -1.2496    5.1742 C.ar    1  UNL11       0.0283
     27 N           2.0803   -0.8719    6.2736 N.ar    1  UNL11      -0.2632
     28 C           3.3839   -0.5848    6.1278 C.ar    1  UNL11       0.0283
     29 C           4.0611   -0.6563    4.9341 C.ar    1  UNL11      -0.0314
     30 H           3.9580   -1.5744    0.4129 H       1  UNL11       0.1731
     31 H           1.5748   -2.2382    2.0366 H       1  UNL11       0.1731
     32 H          -0.1017   -3.4854    1.1534 H       1  UNL11       0.0625
     33 H          -2.5299   -3.9424    0.7772 H       1  UNL11       0.0618
     34 H          -3.7877   -2.5661   -0.7609 H       1  UNL11       0.0637
     35 H          -2.1612    1.8546   -3.3228 H       1  UNL11       0.1738
     36 H          -0.6464   -0.0959   -5.1328 H       1  UNL11       0.0637
     37 H           1.6974   -0.5752   -5.5062 H       1  UNL11       0.0618
     38 H           3.3134   -0.0981   -3.6327 H       1  UNL11       0.0618
     39 H           2.5078    0.8092   -1.5678 H       1  UNL11       0.0647
     40 H          -0.2973   -0.2565   -1.5799 H       1  UNL11       0.0645
     41 H           1.4647   -1.6474    3.1021 H       1  UNL11       0.0640
     42 H           0.3584   -1.4964    5.2243 H       1  UNL11       0.0830
     43 H           3.9232   -0.2759    7.0341 H       1  UNL11       0.0830
     44 H           5.1088   -0.4243    4.8219 H       1  UNL11       0.0640
@<TRIPOS>BOND
     1     1     2    2
     2     2     3   am
     3     2    24    1
     4     3     4    1
     5     3    30    1
     6     4     5   am
     7     4    31    1
     8     5     6    2
     9     5     7    1
    10     7     8   ar
    11     8     9   ar
    12     8    32    1
    13     9    10   ar
    14     9    33    1
    15    10    11   ar
    16    10    34    1
    17    11    12    1
    18    11    23   ar
    19    12    13    2
    20    12    14    2
    21    12    15    1
    22    15    16    1
    23    15    35    1
    24    16    17   ar
    25    17    18   ar
    26    17    36    1
    27    18    19   ar
    28    18    37    1
    29    19    20   ar
    30    19    38    1
    31    20    21   ar
    32    20    39    1
    33    21    22    1
    34    21    16   ar
    35    23     7   ar
    36    23    40    1
    37    24    25   ar
    38    25    26   ar
    39    25    41    1
    40    26    27   ar
    41    26    42    1
    42    27    28   ar
    43    28    29   ar
    44    28    43    1
    45    29    24   ar
    46    29    44    1
@<TRIPOS>MOLECULE
*****
 44 46 0 0 0
SMALL
GASTEIGER

@<TRIPOS>ATOM
      1 O           5.7941   -0.6727   -1.1024 O.2     1  UNL11      -0.2687
      2 C           4.6323   -0.8668   -1.5603 C.2     1  UNL11       0.2602
      3 N           3.5677   -0.8013   -0.6251 N.am    1  UNL11      -0.2301
      4 N           2.2251   -1.0082   -0.9674 N.am    1  UNL11      -0.2301
      5 C           1.3651   -1.5585    0.0131 C.2     1  UNL11       0.2602
      6 O           1.8532   -1.8301    1.1381 O.2     1  UNL11      -0.2687
      7 C          -0.0424   -1.8272   -0.2025 C.ar    1  UNL11       0.0400
      8 C          -0.6723   -2.8587    0.4564 C.ar    1  UNL11      -0.0495
      9 C          -2.0043   -3.1400    0.2757 C.ar    1  UNL11      -0.0592
     10 C          -2.7388   -2.3450   -0.6111 C.ar    1  UNL11      -0.0350
     11 C          -2.1443   -1.3096   -1.2839 C.ar    1  UNL11       0.1092
     12 S          -2.9648   -0.2560   -2.4012 S.O2    1  UNL11       0.0724
     13 O          -4.0768   -0.9694   -3.1191 O.2     1  UNL11      -0.1500
     14 O          -1.9559    0.1637   -3.4369 O.2     1  UNL11      -0.1500
     15 N          -3.5892    1.0907   -1.5430 N.pl3   1  UNL11      -0.2135
     16 C          -4.3268    2.1395   -2.1378 C.ar    1  UNL11       0.0831
     17 C          -5.6924    2.0924   -2.2373 C.ar    1  UNL11      -0.0365
     18 C          -6.4571    3.0892   -2.8192 C.ar    1  UNL11      -0.0598
     19 C          -5.8088    4.1807   -3.3218 C.ar    1  UNL11      -0.0589
     20 C          -4.4387    4.2554   -3.2358 C.ar    1  UNL11      -0.0246
     21 C          -3.7012    3.2578   -2.6562 C.ar    1  UNL11       0.1456
     22 F          -2.3577    3.3395   -2.5770 F       1  UNL11      -0.2035
     23 C          -0.7867   -1.0751   -1.0566 C.ar    1  UNL11      -0.0229
     24 C           4.4236   -1.1442   -2.9923 C.ar    1  UNL11       0.0410
     25 C           3.1904   -1.3479   -3.5452 C.ar    1  UNL11      -0.0314
     26 C           3.0258   -1.6042   -4.8834 C.ar    1  UNL11       0.0283
     27 N           4.0693   -1.6684   -5.7186 N.ar    1  UNL11      -0.2632
     28 C           5.2860   -1.4700   -5.1862 C.ar    1  UNL11       0.0283
     29 C           5.5133   -1.2099   -3.8560 C.ar    1  UNL11      -0.0314
     30 H           3.7756   -0.5877    0.3735 H       1  UNL11       0.1731
     31 H           1.8970   -0.7622   -1.9061 H       1  UNL11       0.1731
     32 H          -0.1017   -3.4854    1.1534 H       1  UNL11       0.0625
     33 H          -2.5299   -3.9424    0.7772 H       1  UNL11       0.0618
     34 H          -3.7877   -2.5661   -0.7609 H       1  UNL11       0.0637
     35 H          -3.4355    1.1859   -0.4910 H       1  UNL11       0.1738
     36 H          -6.1819    1.2280   -1.8441 H       1  UNL11       0.0637
     37 H          -7.5385    2.9624   -2.8512 H       1  UNL11       0.0618
     38 H          -6.3645    4.9862   -3.7865 H       1  UNL11       0.0618
     39 H          -3.9786    5.1464   -3.6521 H       1  UNL11       0.0647
     40 H          -0.2973   -0.2565   -1.5799 H       1  UNL11       0.0645
     41 H           2.3215   -1.3062   -2.9164 H       1  UNL11       0.0640
     42 H           2.0126   -1.7557   -5.2515 H       1  UNL11       0.0830
     43 H           6.1390   -1.5232   -5.8769 H       1  UNL11       0.0830
     44 H           6.4930   -1.0514   -3.4328 H       1  UNL11       0.0640
@<TRIPOS>BOND
     1     1     2    2
     2     2     3   am
     3     2    24    1
     4     3     4    1
     5     3    30    1
     6     4     5   am
     7     4    31    1
     8     5     6    2
     9     5     7    1
    10     7     8   ar
    11     8     9   ar
    12     8    32    1
    13     9    10   ar
    14     9    33    1
    15    10    11   ar
    16    10    34    1
    17    11    12    1
    18    11    23   ar
    19    12    13    2
    20    12    14    2
    21    12    15    1
    22    15    16    1
    23    15    35    1
    24    16    17   ar
    25    17    18   ar
    26    17    36    1
    27    18    19   ar
    28    18    37    1
    29    19    20   ar
    30    19    38    1
    31    20    21   ar
    32    20    39    1
    33    21    22    1
    34    21    16   ar
    35    23     7   ar
    36    23    40    1
    37    24    25   ar
    38    25    26   ar
    39    25    41    1
    40    26    27   ar
    41    26    42    1
    42    27    28   ar
    43    28    29   ar
    44    28    43    1
    45    29    24   ar
    46    29    44    1
@<TRIPOS>MOLECULE
*****
 44 46 0 0 0
SMALL
GASTEIGER

@<TRIPOS>ATOM
      1 O           3.6093   -2.5324    0.8591 O.2     1  UNL11      -0.2687
      2 C           4.2656   -1.5968    0.3196 C.2     1  UNL11       0.2602
      3 N           3.5677   -0.8013   -0.6251 N.am    1  UNL11      -0.2301
      4 N           2.2251   -1.0082   -0.9674 N.am    1  UNL11      -0.2301
      5 C           1.3651   -1.5585    0.0131 C.2     1  UNL11       0.2602
      6 O           1.8532   -1.8301    1.1381 O.2     1  UNL11      -0.2687
      7 C          -0.0424   -1.8272   -0.2025 C.ar    1  UNL11       0.0400
      8 C          -0.6723   -2.8587    0.4564 C.ar    1  UNL11      -0.0495
      9 C          -2.0043   -3.1400    0.2757 C.ar    1  UNL11      -0.0592
     10 C          -2.7388   -2.3450   -0.6111 C.ar    1  UNL11      -0.0350
     11 C          -2.1443   -1.3096   -1.2839 C.ar    1  UNL11       0.1092
     12 S          -2.9648   -0.2560   -2.4012 S.O2    1  UNL11       0.0724
     13 O          -2.3851    1.1312   -2.3806 O.2     1  UNL11      -0.1500
     14 O          -4.3956   -0.1534   -1.9442 O.2     1  UNL11      -0.1500
     15 N          -2.8497   -0.9169   -3.9792 N.pl3   1  UNL11      -0.2135
     16 C          -3.8249   -0.7415   -4.9872 C.ar    1  UNL11       0.0831
     17 C          -4.8659   -1.6187   -5.1417 C.ar    1  UNL11      -0.0365
     18 C          -5.8390   -1.4947   -6.1188 C.ar    1  UNL11      -0.0598
     19 C          -5.7525   -0.4355   -6.9760 C.ar    1  UNL11      -0.0589
     20 C          -4.7187    0.4613   -6.8445 C.ar    1  UNL11      -0.0246
     21 C          -3.7663    0.3197   -5.8709 C.ar    1  UNL11       0.1456
     22 F          -2.7556    1.2039   -5.7501 F       1  UNL11      -0.2035
     23 C          -0.7867   -1.0751   -1.0566 C.ar    1  UNL11      -0.0229
     24 C           5.6779   -1.3671    0.6714 C.ar    1  UNL11       0.0410
     25 C           6.2674   -0.1343    0.6431 C.ar    1  UNL11      -0.0314
     26 C           7.5858    0.0502    0.9765 C.ar    1  UNL11       0.0283
     27 N           8.3650   -0.9725    1.3474 N.ar    1  UNL11      -0.2632
     28 C           7.7964   -2.1886    1.3785 C.ar    1  UNL11       0.0283
     29 C           6.4833   -2.4352    1.0562 C.ar    1  UNL11      -0.0314
     30 H           4.0638   -0.0182   -1.1011 H       1  UNL11       0.1731
     31 H           1.8970   -0.7622   -1.9061 H       1  UNL11       0.1731
     32 H          -0.1017   -3.4854    1.1534 H       1  UNL11       0.0625
     33 H          -2.5299   -3.9424    0.7772 H       1  UNL11       0.0618
     34 H          -3.7877   -2.5661   -0.7609 H       1  UNL11       0.0637
     35 H          -2.0060   -1.5055   -4.2637 H       1  UNL11       0.1738
     36 H          -4.9138   -2.4448   -4.4658 H       1  UNL11       0.0637
     37 H          -6.6294   -2.2429   -6.1625 H       1  UNL11       0.0618
     38 H          -6.4906   -0.2966   -7.7567 H       1  UNL11       0.0618
     39 H          -4.7018    1.2830   -7.5539 H       1  UNL11       0.0647
     40 H          -0.2973   -0.2565   -1.5799 H       1  UNL11       0.0645
     41 H           5.6837    0.7184    0.3523 H       1  UNL11       0.0640
     42 H           7.9854    1.0617    0.9306 H       1  UNL11       0.0830
     43 H           8.4408   -3.0245    1.6845 H       1  UNL11       0.0830
     44 H           6.0310   -3.4143    1.0825 H       1  UNL11       0.0640
@<TRIPOS>BOND
     1     1     2    2
     2     2     3   am
     3     2    24    1
     4     3     4    1
     5     3    30    1
     6     4     5   am
     7     4    31    1
     8     5     6    2
     9     5     7    1
    10     7     8   ar
    11     8     9   ar
    12     8    32    1
    13     9    10   ar
    14     9    33    1
    15    10    11   ar
    16    10    34    1
    17    11    12    1
    18    11    23   ar
    19    12    13    2
    20    12    14    2
    21    12    15    1
    22    15    16    1
    23    15    35    1
    24    16    17   ar
    25    17    18   ar
    26    17    36    1
    27    18    19   ar
    28    18    37    1
    29    19    20   ar
    30    19    38    1
    31    20    21   ar
    32    20    39    1
    33    21    22    1
    34    21    16   ar
    35    23     7   ar
    36    23    40    1
    37    24    25   ar
    38    25    26   ar
    39    25    41    1
    40    26    27   ar
    41    26    42    1
    42    27    28   ar
    43    28    29   ar
    44    28    43    1
    45    29    24   ar
    46    29    44    1
@<TRIPOS>MOLECULE
*****
 44 46 0 0 0
SMALL
GASTEIGER

@<TRIPOS>ATOM
      1 O          -0.6488   -1.4477    1.6346 O.2     1  UNL11      -0.2687
      2 C          -0.0697   -2.1975    2.4710 C.2     1  UNL11       0.2602
      3 N           1.3197   -2.4054    2.2743 N.am    1  UNL11      -0.2301
      4 N           2.0460   -1.8285    1.2244 N.am    1  UNL11      -0.2301
      5 C           1.3651   -1.5585    0.0131 C.2     1  UNL11       0.2602
      6 O           2.0223   -1.0552   -0.9315 O.2     1  UNL11      -0.2687
      7 C          -0.0424   -1.8272   -0.2025 C.ar    1  UNL11       0.0400
      8 C          -0.6723   -2.8587    0.4564 C.ar    1  UNL11      -0.0495
      9 C          -2.0043   -3.1400    0.2757 C.ar    1  UNL11      -0.0592
     10 C          -2.7388   -2.3450   -0.6111 C.ar    1  UNL11      -0.0350
     11 C          -2.1443   -1.3096   -1.2839 C.ar    1  UNL11       0.1092
     12 S          -2.9648   -0.2560   -2.4012 S.O2    1  UNL11       0.0724
     13 O          -3.5240   -1.0178   -3.5707 O.2     1  UNL11      -0.1500
     14 O          -1.9385    0.7055   -2.9387 O.2     1  UNL11      -0.1500
     15 N          -4.2262    0.5604   -1.5753 N.pl3   1  UNL11      -0.2135
     16 C          -5.5507    0.0779   -1.4715 C.ar    1  UNL11       0.0831
     17 C          -5.9457   -0.7221   -0.4318 C.ar    1  UNL11      -0.0365
     18 C          -7.2275   -1.2265   -0.2921 C.ar    1  UNL11      -0.0598
     19 C          -8.1483   -0.9058   -1.2479 C.ar    1  UNL11      -0.0589
     20 C          -7.7803   -0.1043   -2.3027 C.ar    1  UNL11      -0.0246
     21 C          -6.5066    0.3839   -2.4219 C.ar    1  UNL11       0.1456
     22 F          -6.1547    1.1687   -3.4604 F       1  UNL11      -0.2035
     23 C          -0.7867   -1.0751   -1.0566 C.ar    1  UNL11      -0.0229
     24 C          -0.8212   -2.8096    3.5808 C.ar    1  UNL11       0.0410
     25 C          -0.4948   -4.0167    4.1324 C.ar    1  UNL11      -0.0314
     26 C          -1.2131   -4.5629    5.1664 C.ar    1  UNL11       0.0283
     27 N          -2.2748   -3.9385    5.6893 N.ar    1  UNL11      -0.2632
     28 C          -2.6049   -2.7516    5.1549 C.ar    1  UNL11       0.0283
     29 C          -1.9250   -2.1551    4.1203 C.ar    1  UNL11      -0.0314
     30 H           1.8444   -3.0177    2.9344 H       1  UNL11       0.1731
     31 H           3.0404   -1.6176    1.3511 H       1  UNL11       0.1731
     32 H          -0.1017   -3.4854    1.1534 H       1  UNL11       0.0625
     33 H          -2.5299   -3.9424    0.7772 H       1  UNL11       0.0618
     34 H          -3.7877   -2.5661   -0.7609 H       1  UNL11       0.0637
     35 H          -4.0468    1.4961   -1.0939 H       1  UNL11       0.1738
     36 H          -5.2103   -0.9676    0.3032 H       1  UNL11       0.0637
     37 H          -7.4474   -1.8545    0.5704 H       1  UNL11       0.0618
     38 H          -9.1638   -1.2769   -1.1815 H       1  UNL11       0.0618
     39 H          -8.5543    0.1171   -3.0313 H       1  UNL11       0.0647
     40 H          -0.2973   -0.2565   -1.5799 H       1  UNL11       0.0645
     41 H           0.3494   -4.5568    3.7477 H       1  UNL11       0.0640
     42 H          -0.8927   -5.5283    5.5542 H       1  UNL11       0.0830
     43 H          -3.4772   -2.2432    5.5888 H       1  UNL11       0.0830
     44 H          -2.1943   -1.2012    3.6941 H       1  UNL11       0.0640
@<TRIPOS>BOND
     1     1     2    2
     2     2     3   am
     3     2    24    1
     4     3     4    1
     5     3    30    1
     6     4     5   am
     7     4    31    1
     8     5     6    2
     9     5     7    1
    10     7     8   ar
    11     8     9   ar
    12     8    32    1
    13     9    10   ar
    14     9    33    1
    15    10    11   ar
    16    10    34    1
    17    11    12    1
    18    11    23   ar
    19    12    13    2
    20    12    14    2
    21    12    15    1
    22    15    16    1
    23    15    35    1
    24    16    17   ar
    25    17    18   ar
    26    17    36    1
    27    18    19   ar
    28    18    37    1
    29    19    20   ar
    30    19    38    1
    31    20    21   ar
    32    20    39    1
    33    21    22    1
    34    21    16   ar
    35    23     7   ar
    36    23    40    1
    37    24    25   ar
    38    25    26   ar
    39    25    41    1
    40    26    27   ar
    41    26    42    1
    42    27    28   ar
    43    28    29   ar
    44    28    43    1
    45    29    24   ar
    46    29    44    1
@<TRIPOS>MOLECULE
*****
 44 46 0 0 0
SMALL
GASTEIGER

@<TRIPOS>ATOM
      1 O           5.4836   -1.1599    0.2963 O.2     1  UNL11      -0.2687
      2 C           4.2797   -1.4463    0.0399 C.2     1  UNL11       0.2602
      3 N           3.4370   -0.3629   -0.3183 N.am    1  UNL11      -0.2301
      4 N           2.0760   -0.5087   -0.6164 N.am    1  UNL11      -0.2301
      5 C           1.3651   -1.5585    0.0131 C.2     1  UNL11       0.2602
      6 O           1.9940   -2.3017    0.8066 O.2     1  UNL11      -0.2687
      7 C          -0.0424   -1.8272   -0.2025 C.ar    1  UNL11       0.0400
      8 C          -0.6723   -2.8587    0.4564 C.ar    1  UNL11      -0.0495
      9 C          -2.0043   -3.1400    0.2757 C.ar    1  UNL11      -0.0592
     10 C          -2.7388   -2.3450   -0.6111 C.ar    1  UNL11      -0.0350
     11 C          -2.1443   -1.3096   -1.2839 C.ar    1  UNL11       0.1092
     12 S          -2.9648   -0.2560   -2.4012 S.O2    1  UNL11       0.0724
     13 O          -2.0399    0.7934   -2.9527 O.2     1  UNL11      -0.1500
     14 O          -4.0438    0.4551   -1.6287 O.2     1  UNL11      -0.1500
     15 N          -3.6154   -1.1954   -3.6796 N.pl3   1  UNL11      -0.2135
     16 C          -3.2723   -1.0309   -5.0408 C.ar    1  UNL11       0.0831
     17 C          -3.9683   -0.1822   -5.8608 C.ar    1  UNL11      -0.0365
     18 C          -3.6767    0.0051   -7.2013 C.ar    1  UNL11      -0.0598
     19 C          -2.6344   -0.6985   -7.7329 C.ar    1  UNL11      -0.0589
     20 C          -1.9177   -1.5575   -6.9337 C.ar    1  UNL11      -0.0246
     21 C          -2.2232   -1.7281   -5.6098 C.ar    1  UNL11       0.1456
     22 F          -1.5150   -2.5733   -4.8339 F       1  UNL11      -0.2035
     23 C          -0.7867   -1.0751   -1.0566 C.ar    1  UNL11      -0.0229
     24 C           3.8038   -2.8387    0.1168 C.ar    1  UNL11       0.0410
     25 C           4.6082   -3.8887    0.4611 C.ar    1  UNL11      -0.0314
     26 C           4.1374   -5.1762    0.5249 C.ar    1  UNL11       0.0283
     27 N           2.8610   -5.4704    0.2517 N.ar    1  UNL11      -0.2632
     28 C           2.0614   -4.4465   -0.0879 C.ar    1  UNL11       0.0283
     29 C           2.4748   -3.1383   -0.1688 C.ar    1  UNL11      -0.0314
     30 H           3.8338    0.5994   -0.3692 H       1  UNL11       0.1731
     31 H           1.6287    0.1363   -1.2747 H       1  UNL11       0.1731
     32 H          -0.1017   -3.4854    1.1534 H       1  UNL11       0.0625
     33 H          -2.5299   -3.9424    0.7772 H       1  UNL11       0.0618
     34 H          -3.7877   -2.5661   -0.7609 H       1  UNL11       0.0637
     35 H          -4.3286   -1.9647   -3.4827 H       1  UNL11       0.1738
     36 H          -4.7844    0.3553   -5.4290 H       1  UNL11       0.0637
     37 H          -4.2872    0.7030   -7.7730 H       1  UNL11       0.0618
     38 H          -2.3685   -0.5853   -8.7770 H       1  UNL11       0.0618
     39 H          -1.1004   -2.0894   -7.4111 H       1  UNL11       0.0647
     40 H          -0.2973   -0.2565   -1.5799 H       1  UNL11       0.0645
     41 H           5.6407   -3.7041    0.6898 H       1  UNL11       0.0640
     42 H           4.8377   -5.9606    0.8068 H       1  UNL11       0.0830
     43 H           1.0141   -4.6939   -0.3104 H       1  UNL11       0.0830
     44 H           1.8285   -2.3189   -0.4424 H       1  UNL11       0.0640
@<TRIPOS>BOND
     1     1     2    2
     2     2     3   am
     3     2    24    1
     4     3     4    1
     5     3    30    1
     6     4     5   am
     7     4    31    1
     8     5     6    2
     9     5     7    1
    10     7     8   ar
    11     8     9   ar
    12     8    32    1
    13     9    10   ar
    14     9    33    1
    15    10    11   ar
    16    10    34    1
    17    11    12    1
    18    11    23   ar
    19    12    13    2
    20    12    14    2
    21    12    15    1
    22    15    16    1
    23    15    35    1
    24    16    17   ar
    25    17    18   ar
    26    17    36    1
    27    18    19   ar
    28    18    37    1
    29    19    20   ar
    30    19    38    1
    31    20    21   ar
    32    20    39    1
    33    21    22    1
    34    21    16   ar
    35    23     7   ar
    36    23    40    1
    37    24    25   ar
    38    25    26   ar
    39    25    41    1
    40    26    27   ar
    41    26    42    1
    42    27    28   ar
    43    28    29   ar
    44    28    43    1
    45    29    24   ar
    46    29    44    1
@<TRIPOS>MOLECULE
*****
 44 46 0 0 0
SMALL
GASTEIGER

@<TRIPOS>ATOM
      1 O           1.2123    1.7128   -3.2974 O.2     1  UNL11      -0.2687
      2 C           1.9677    0.9701   -2.6083 C.2     1  UNL11       0.2602
      3 N           1.3735    0.3323   -1.4892 N.am    1  UNL11      -0.2301
      4 N           2.0760   -0.5087   -0.6164 N.am    1  UNL11      -0.2301
      5 C           1.3651   -1.5585    0.0131 C.2     1  UNL11       0.2602
      6 O           1.9940   -2.3017    0.8066 O.2     1  UNL11      -0.2687
      7 C          -0.0424   -1.8272   -0.2025 C.ar    1  UNL11       0.0400
      8 C          -0.6723   -2.8587    0.4564 C.ar    1  UNL11      -0.0495
      9 C          -2.0043   -3.1400    0.2757 C.ar    1  UNL11      -0.0592
     10 C          -2.7388   -2.3450   -0.6111 C.ar    1  UNL11      -0.0350
     11 C          -2.1443   -1.3096   -1.2839 C.ar    1  UNL11       0.1092
     12 S          -2.9648   -0.2560   -2.4012 S.O2    1  UNL11       0.0724
     13 O          -2.0399    0.7934   -2.9527 O.2     1  UNL11      -0.1500
     14 O          -4.0438    0.4551   -1.6287 O.2     1  UNL11      -0.1500
     15 N          -3.6154   -1.1954   -3.6796 N.pl3   1  UNL11      -0.2135
     16 C          -4.5720   -2.2210   -3.5048 C.ar    1  UNL11       0.0831
     17 C          -5.9173   -1.9668   -3.5576 C.ar    1  UNL11      -0.0365
     18 C          -6.8915   -2.9351   -3.3833 C.ar    1  UNL11      -0.0598
     19 C          -6.4838   -4.2163   -3.1452 C.ar    1  UNL11      -0.0589
     20 C          -5.1400   -4.5010   -3.0871 C.ar    1  UNL11      -0.0246
     21 C          -4.1927   -3.5278   -3.2622 C.ar    1  UNL11       0.1456
     22 F          -2.8770   -3.8165   -3.2027 F       1  UNL11      -0.2035
     23 C          -0.7867   -1.0751   -1.0566 C.ar    1  UNL11      -0.0229
     24 C           3.3852    0.7942   -2.9703 C.ar    1  UNL11       0.0410
     25 C           4.3693    0.5515   -2.0535 C.ar    1  UNL11      -0.0314
     26 C           5.6822    0.3914   -2.4197 C.ar    1  UNL11       0.0283
     27 N           6.0673    0.4655   -3.6990 N.ar    1  UNL11      -0.2632
     28 C           5.1087    0.7038   -4.6087 C.ar    1  UNL11       0.0283
     29 C           3.7795    0.8726   -4.3030 C.ar    1  UNL11      -0.0314
     30 H           0.3618    0.4841   -1.2907 H       1  UNL11       0.1731
     31 H           3.0746   -0.3496   -0.4523 H       1  UNL11       0.1731
     32 H          -0.1017   -3.4854    1.1534 H       1  UNL11       0.0625
     33 H          -2.5299   -3.9424    0.7772 H       1  UNL11       0.0618
     34 H          -3.7877   -2.5661   -0.7609 H       1  UNL11       0.0637
     35 H          -3.3076   -1.0311   -4.6884 H       1  UNL11       0.1738
     36 H          -6.2176   -0.9577   -3.7388 H       1  UNL11       0.0637
     37 H          -7.9373   -2.6365   -3.4437 H       1  UNL11       0.0618
     38 H          -7.2093   -5.0079   -3.0022 H       1  UNL11       0.0618
     39 H          -4.8757   -5.5364   -2.8951 H       1  UNL11       0.0647
     40 H          -0.2973   -0.2565   -1.5799 H       1  UNL11       0.0645
     41 H           4.1107    0.4828   -1.0139 H       1  UNL11       0.0640
     42 H           6.4101    0.2005   -1.6331 H       1  UNL11       0.0830
     43 H           5.4307    0.7628   -5.6577 H       1  UNL11       0.0830
     44 H           3.0129    1.0641   -5.0376 H       1  UNL11       0.0640
@<TRIPOS>BOND
     1     1     2    2
     2     2     3   am
     3     2    24    1
     4     3     4    1
     5     3    30    1
     6     4     5   am
     7     4    31    1
     8     5     6    2
     9     5     7    1
    10     7     8   ar
    11     8     9   ar
    12     8    32    1
    13     9    10   ar
    14     9    33    1
    15    10    11   ar
    16    10    34    1
    17    11    12    1
    18    11    23   ar
    19    12    13    2
    20    12    14    2
    21    12    15    1
    22    15    16    1
    23    15    35    1
    24    16    17   ar
    25    17    18   ar
    26    17    36    1
    27    18    19   ar
    28    18    37    1
    29    19    20   ar
    30    19    38    1
    31    20    21   ar
    32    20    39    1
    33    21    22    1
    34    21    16   ar
    35    23     7   ar
    36    23    40    1
    37    24    25   ar
    38    25    26   ar
    39    25    41    1
    40    26    27   ar
    41    26    42    1
    42    27    28   ar
    43    28    29   ar
    44    28    43    1
    45    29    24   ar
    46    29    44    1
@<TRIPOS>MOLECULE
*****
 44 46 0 0 0
SMALL
GASTEIGER

@<TRIPOS>ATOM
      1 O           0.8786   -2.7798    4.4803 O.2     1  UNL11      -0.2687
      2 C           1.6112   -2.1791    3.6439 C.2     1  UNL11       0.2602
      3 N           1.3197   -2.4054    2.2743 N.am    1  UNL11      -0.2301
      4 N           2.0460   -1.8285    1.2244 N.am    1  UNL11      -0.2301
      5 C           1.3651   -1.5585    0.0131 C.2     1  UNL11       0.2602
      6 O           2.0223   -1.0552   -0.9315 O.2     1  UNL11      -0.2687
      7 C          -0.0424   -1.8272   -0.2025 C.ar    1  UNL11       0.0400
      8 C          -0.6723   -2.8587    0.4564 C.ar    1  UNL11      -0.0495
      9 C          -2.0043   -3.1400    0.2757 C.ar    1  UNL11      -0.0592
     10 C          -2.7388   -2.3450   -0.6111 C.ar    1  UNL11      -0.0350
     11 C          -2.1443   -1.3096   -1.2839 C.ar    1  UNL11       0.1092
     12 S          -2.9648   -0.2560   -2.4012 S.O2    1  UNL11       0.0724
     13 O          -2.9416    1.1726   -1.9329 O.2     1  UNL11      -0.1500
     14 O          -4.4050   -0.6924   -2.4456 O.2     1  UNL11      -0.1500
     15 N          -2.2172   -0.3818   -3.9391 N.pl3   1  UNL11      -0.2135
     16 C          -2.1564    0.6698   -4.8815 C.ar    1  UNL11       0.0831
     17 C          -3.1317    0.8454   -5.8276 C.ar    1  UNL11      -0.0365
     18 C          -3.1115    1.8534   -6.7767 C.ar    1  UNL11      -0.0598
     19 C          -2.0569    2.7205   -6.7657 C.ar    1  UNL11      -0.0589
     20 C          -1.0634    2.5688   -5.8275 C.ar    1  UNL11      -0.0246
     21 C          -1.1028    1.5644   -4.8975 C.ar    1  UNL11       0.1456
     22 F          -0.1235    1.4231   -3.9816 F       1  UNL11      -0.2035
     23 C          -0.7867   -1.0751   -1.0566 C.ar    1  UNL11      -0.0229
     24 C           2.7022   -1.2972    4.0948 C.ar    1  UNL11       0.0410
     25 C           3.1249   -0.2056    3.3894 C.ar    1  UNL11      -0.0314
     26 C           4.1441    0.5987    3.8340 C.ar    1  UNL11       0.0283
     27 N           4.7790    0.3537    4.9862 N.ar    1  UNL11      -0.2632
     28 C           4.3721   -0.7166    5.6876 C.ar    1  UNL11       0.0283
     29 C           3.3589   -1.5577    5.2942 C.ar    1  UNL11      -0.0314
     30 H           0.5261   -3.0294    2.0159 H       1  UNL11       0.1731
     31 H           3.0404   -1.6176    1.3511 H       1  UNL11       0.1731
     32 H          -0.1017   -3.4854    1.1534 H       1  UNL11       0.0625
     33 H          -2.5299   -3.9424    0.7772 H       1  UNL11       0.0618
     34 H          -3.7877   -2.5661   -0.7609 H       1  UNL11       0.0637
     35 H          -1.7555   -1.2932   -4.2481 H       1  UNL11       0.1738
     36 H          -3.9460    0.1538   -5.8249 H       1  UNL11       0.0637
     37 H          -3.9338    1.9129   -7.4886 H       1  UNL11       0.0618
     38 H          -1.9973    3.5249   -7.4887 H       1  UNL11       0.0618
     39 H          -0.2507    3.2876   -5.8672 H       1  UNL11       0.0647
     40 H          -0.2973   -0.2565   -1.5799 H       1  UNL11       0.0645
     41 H           2.6466    0.0333    2.4585 H       1  UNL11       0.0640
     42 H           4.4255    1.4509    3.2178 H       1  UNL11       0.0830
     43 H           4.8966   -0.9126    6.6332 H       1  UNL11       0.0830
     44 H           3.0357   -2.4167    5.8613 H       1  UNL11       0.0640
@<TRIPOS>BOND
     1     1     2    2
     2     2     3   am
     3     2    24    1
     4     3     4    1
     5     3    30    1
     6     4     5   am
     7     4    31    1
     8     5     6    2
     9     5     7    1
    10     7     8   ar
    11     8     9   ar
    12     8    32    1
    13     9    10   ar
    14     9    33    1
    15    10    11   ar
    16    10    34    1
    17    11    12    1
    18    11    23   ar
    19    12    13    2
    20    12    14    2
    21    12    15    1
    22    15    16    1
    23    15    35    1
    24    16    17   ar
    25    17    18   ar
    26    17    36    1
    27    18    19   ar
    28    18    37    1
    29    19    20   ar
    30    19    38    1
    31    20    21   ar
    32    20    39    1
    33    21    22    1
    34    21    16   ar
    35    23     7   ar
    36    23    40    1
    37    24    25   ar
    38    25    26   ar
    39    25    41    1
    40    26    27   ar
    41    26    42    1
    42    27    28   ar
    43    28    29   ar
    44    28    43    1
    45    29    24   ar
    46    29    44    1
@<TRIPOS>MOLECULE
*****
 44 46 0 0 0
SMALL
GASTEIGER

@<TRIPOS>ATOM
      1 O           0.2063   -0.9862   -3.9326 O.2     1  UNL11      -0.2687
      2 C           0.5796   -1.3768   -2.7901 C.2     1  UNL11       0.2602
      3 N           1.6800   -0.6887   -2.2177 N.am    1  UNL11      -0.2301
      4 N           2.2251   -1.0082   -0.9674 N.am    1  UNL11      -0.2301
      5 C           1.3651   -1.5585    0.0131 C.2     1  UNL11       0.2602
      6 O           1.8532   -1.8301    1.1381 O.2     1  UNL11      -0.2687
      7 C          -0.0424   -1.8272   -0.2025 C.ar    1  UNL11       0.0400
      8 C          -0.6723   -2.8587    0.4564 C.ar    1  UNL11      -0.0495
      9 C          -2.0043   -3.1400    0.2757 C.ar    1  UNL11      -0.0592
     10 C          -2.7388   -2.3450   -0.6111 C.ar    1  UNL11      -0.0350
     11 C          -2.1443   -1.3096   -1.2839 C.ar    1  UNL11       0.1092
     12 S          -2.9648   -0.2560   -2.4012 S.O2    1  UNL11       0.0724
     13 O          -2.3280   -0.2901   -3.7629 O.2     1  UNL11      -0.1500
     14 O          -2.8237    1.1466   -1.8726 O.2     1  UNL11      -0.1500
     15 N          -4.6092   -0.7293   -2.5103 N.pl3   1  UNL11      -0.2135
     16 C          -5.0417   -2.0097   -2.9239 C.ar    1  UNL11       0.0831
     17 C          -5.2361   -3.0279   -2.0280 C.ar    1  UNL11      -0.0365
     18 C          -5.6493   -4.3001   -2.3855 C.ar    1  UNL11      -0.0598
     19 C          -5.8749   -4.5505   -3.7086 C.ar    1  UNL11      -0.0589
     20 C          -5.6883   -3.5477   -4.6304 C.ar    1  UNL11      -0.0246
     21 C          -5.2789   -2.2960   -4.2552 C.ar    1  UNL11       0.1456
     22 F          -5.0978   -1.3190   -5.1666 F       1  UNL11      -0.2035
     23 C          -0.7867   -1.0751   -1.0566 C.ar    1  UNL11      -0.0229
     24 C          -0.1090   -2.4892   -2.1122 C.ar    1  UNL11       0.0410
     25 C          -1.4320   -2.7775   -2.2980 C.ar    1  UNL11      -0.0314
     26 C          -2.0475   -3.8208   -1.6529 C.ar    1  UNL11       0.0283
     27 N          -1.3804   -4.6124   -0.8050 N.ar    1  UNL11      -0.2632
     28 C          -0.0797   -4.3383   -0.6146 C.ar    1  UNL11       0.0283
     29 C           0.5905   -3.3089   -1.2311 C.ar    1  UNL11      -0.0314
     30 H           2.1183    0.1000   -2.7392 H       1  UNL11       0.1731
     31 H           3.2196   -0.8391   -0.7891 H       1  UNL11       0.1731
     32 H          -0.1017   -3.4854    1.1534 H       1  UNL11       0.0625
     33 H          -2.5299   -3.9424    0.7772 H       1  UNL11       0.0618
     34 H          -3.7877   -2.5661   -0.7609 H       1  UNL11       0.0637
     35 H          -5.3909   -0.0468   -2.2604 H       1  UNL11       0.1738
     36 H          -5.0488   -2.8153   -0.9978 H       1  UNL11       0.0637
     37 H          -5.7772   -5.0444   -1.6005 H       1  UNL11       0.0618
     38 H          -6.1991   -5.5307   -4.0365 H       1  UNL11       0.0618
     39 H          -5.8832   -3.8051   -5.6671 H       1  UNL11       0.0647
     40 H          -0.2973   -0.2565   -1.5799 H       1  UNL11       0.0645
     41 H          -2.0106   -2.1714   -2.9690 H       1  UNL11       0.0640
     42 H          -3.1045   -3.9893   -1.8515 H       1  UNL11       0.0830
     43 H           0.4632   -4.9921    0.0822 H       1  UNL11       0.0830
     44 H           1.6358   -3.0925   -1.0746 H       1  UNL11       0.0640
@<TRIPOS>BOND
     1     1     2    2
     2     2     3   am
     3     2    24    1
     4     3     4    1
     5     3    30    1
     6     4     5   am
     7     4    31    1
     8     5     6    2
     9     5     7    1
    10     7     8   ar
    11     8     9   ar
    12     8    32    1
    13     9    10   ar
    14     9    33    1
    15    10    11   ar
    16    10    34    1
    17    11    12    1
    18    11    23   ar
    19    12    13    2
    20    12    14    2
    21    12    15    1
    22    15    16    1
    23    15    35    1
    24    16    17   ar
    25    17    18   ar
    26    17    36    1
    27    18    19   ar
    28    18    37    1
    29    19    20   ar
    30    19    38    1
    31    20    21   ar
    32    20    39    1
    33    21    22    1
    34    21    16   ar
    35    23     7   ar
    36    23    40    1
    37    24    25   ar
    38    25    26   ar
    39    25    41    1
    40    26    27   ar
    41    26    42    1
    42    27    28   ar
    43    28    29   ar
    44    28    43    1
    45    29    24   ar
    46    29    44    1
@<TRIPOS>MOLECULE
*****
 44 46 0 0 0
SMALL
GASTEIGER

@<TRIPOS>ATOM
      1 O           1.8076    0.1059   -4.3516 O.2     1  UNL11      -0.2687
      2 C           2.4390   -0.1463   -3.2863 C.2     1  UNL11       0.2602
      3 N           1.6800   -0.6887   -2.2177 N.am    1  UNL11      -0.2301
      4 N           2.2251   -1.0082   -0.9674 N.am    1  UNL11      -0.2301
      5 C           1.3651   -1.5585    0.0131 C.2     1  UNL11       0.2602
      6 O           1.8532   -1.8301    1.1381 O.2     1  UNL11      -0.2687
      7 C          -0.0424   -1.8272   -0.2025 C.ar    1  UNL11       0.0400
      8 C          -0.6723   -2.8587    0.4564 C.ar    1  UNL11      -0.0495
      9 C          -2.0043   -3.1400    0.2757 C.ar    1  UNL11      -0.0592
     10 C          -2.7388   -2.3450   -0.6111 C.ar    1  UNL11      -0.0350
     11 C          -2.1443   -1.3096   -1.2839 C.ar    1  UNL11       0.1092
     12 S          -2.9648   -0.2560   -2.4012 S.O2    1  UNL11       0.0724
     13 O          -4.4067   -0.6465   -2.5725 O.2     1  UNL11      -0.1500
     14 O          -2.2921   -0.4179   -3.7383 O.2     1  UNL11      -0.1500
     15 N          -2.8576    1.3569   -1.8293 N.pl3   1  UNL11      -0.2135
     16 C          -3.3537    1.7914   -0.5792 C.ar    1  UNL11       0.0831
     17 C          -4.6324    2.2623   -0.4367 C.ar    1  UNL11      -0.0365
     18 C          -5.1599    2.7075    0.7635 C.ar    1  UNL11      -0.0598
     19 C          -4.3560    2.6736    1.8666 C.ar    1  UNL11      -0.0589
     20 C          -3.0682    2.2058    1.7536 C.ar    1  UNL11      -0.0246
     21 C          -2.5660    1.7702    0.5565 C.ar    1  UNL11       0.1456
     22 F          -1.3014    1.3137    0.4552 F       1  UNL11      -0.2035
     23 C          -0.7867   -1.0751   -1.0566 C.ar    1  UNL11      -0.0229
     24 C           3.8851    0.1187   -3.1870 C.ar    1  UNL11       0.0410
     25 C           4.5082    0.4524   -2.0172 C.ar    1  UNL11      -0.0314
     26 C           5.8578    0.6936   -1.9542 C.ar    1  UNL11       0.0283
     27 N           6.6357    0.6144   -3.0401 N.ar    1  UNL11      -0.2632
     28 C           6.0340    0.2874   -4.1952 C.ar    1  UNL11       0.0283
     29 C           4.6889    0.0349   -4.3203 C.ar    1  UNL11      -0.0314
     30 H           0.6621   -0.8672   -2.3515 H       1  UNL11       0.1731
     31 H           3.2196   -0.8391   -0.7891 H       1  UNL11       0.1731
     32 H          -0.1017   -3.4854    1.1534 H       1  UNL11       0.0625
     33 H          -2.5299   -3.9424    0.7772 H       1  UNL11       0.0618
     34 H          -3.7877   -2.5661   -0.7609 H       1  UNL11       0.0637
     35 H          -2.3954    2.1157   -2.4209 H       1  UNL11       0.1738
     36 H          -5.2448    2.2871   -1.3118 H       1  UNL11       0.0637
     37 H          -6.1892    3.0637    0.7780 H       1  UNL11       0.0618
     38 H          -4.7245    3.0117    2.8276 H       1  UNL11       0.0618
     39 H          -2.4763    2.2022    2.6639 H       1  UNL11       0.0647
     40 H          -0.2973   -0.2565   -1.5799 H       1  UNL11       0.0645
     41 H           3.9272    0.5285   -1.1178 H       1  UNL11       0.0640
     42 H           6.2834    0.9541   -0.9867 H       1  UNL11       0.0830
     43 H           6.6778    0.2231   -5.0834 H       1  UNL11       0.0830
     44 H           4.2100   -0.2273   -5.2509 H       1  UNL11       0.0640
@<TRIPOS>BOND
     1     1     2    2
     2     2     3   am
     3     2    24    1
     4     3     4    1
     5     3    30    1
     6     4     5   am
     7     4    31    1
     8     5     6    2
     9     5     7    1
    10     7     8   ar
    11     8     9   ar
    12     8    32    1
    13     9    10   ar
    14     9    33    1
    15    10    11   ar
    16    10    34    1
    17    11    12    1
    18    11    23   ar
    19    12    13    2
    20    12    14    2
    21    12    15    1
    22    15    16    1
    23    15    35    1
    24    16    17   ar
    25    17    18   ar
    26    17    36    1
    27    18    19   ar
    28    18    37    1
    29    19    20   ar
    30    19    38    1
    31    20    21   ar
    32    20    39    1
    33    21    22    1
    34    21    16   ar
    35    23     7   ar
    36    23    40    1
    37    24    25   ar
    38    25    26   ar
    39    25    41    1
    40    26    27   ar
    41    26    42    1
    42    27    28   ar
    43    28    29   ar
    44    28    43    1
    45    29    24   ar
    46    29    44    1
@<TRIPOS>MOLECULE
*****
 44 46 0 0 0
SMALL
GASTEIGER

@<TRIPOS>ATOM
      1 O           1.2123    1.7128   -3.2974 O.2     1  UNL11      -0.2687
      2 C           1.9677    0.9701   -2.6083 C.2     1  UNL11       0.2602
      3 N           1.3735    0.3323   -1.4892 N.am    1  UNL11      -0.2301
      4 N           2.0760   -0.5087   -0.6164 N.am    1  UNL11      -0.2301
      5 C           1.3651   -1.5585    0.0131 C.2     1  UNL11       0.2602
      6 O           1.9940   -2.3017    0.8066 O.2     1  UNL11      -0.2687
      7 C          -0.0424   -1.8272   -0.2025 C.ar    1  UNL11       0.0400
      8 C          -0.6723   -2.8587    0.4564 C.ar    1  UNL11      -0.0495
      9 C          -2.0043   -3.1400    0.2757 C.ar    1  UNL11      -0.0592
     10 C          -2.7388   -2.3450   -0.6111 C.ar    1  UNL11      -0.0350
     11 C          -2.1443   -1.3096   -1.2839 C.ar    1  UNL11       0.1092
     12 S          -2.9648   -0.2560   -2.4012 S.O2    1  UNL11       0.0724
     13 O          -4.0768   -0.9694   -3.1191 O.2     1  UNL11      -0.1500
     14 O          -1.9559    0.1637   -3.4369 O.2     1  UNL11      -0.1500
     15 N          -3.5892    1.0907   -1.5430 N.pl3   1  UNL11      -0.2135
     16 C          -3.4426    1.2830   -0.1505 C.ar    1  UNL11       0.0831
     17 C          -4.3666    0.8081    0.7427 C.ar    1  UNL11      -0.0365
     18 C          -4.2718    0.9795    2.1134 C.ar    1  UNL11      -0.0598
     19 C          -3.1935    1.6619    2.5990 C.ar    1  UNL11      -0.0589
     20 C          -2.2500    2.1499    1.7261 C.ar    1  UNL11      -0.0246
     21 C          -2.3632    1.9693    0.3735 C.ar    1  UNL11       0.1456
     22 F          -1.4331    2.4521   -0.4750 F       1  UNL11      -0.2035
     23 C          -0.7867   -1.0751   -1.0566 C.ar    1  UNL11      -0.0229
     24 C           3.3852    0.7942   -2.9703 C.ar    1  UNL11       0.0410
     25 C           3.8469    0.8714   -4.2544 C.ar    1  UNL11      -0.0314
     26 C           5.1737    0.7035   -4.5624 C.ar    1  UNL11       0.0283
     27 N           6.0869    0.4540   -3.6167 N.ar    1  UNL11      -0.2632
     28 C           5.6445    0.3757   -2.3513 C.ar    1  UNL11       0.0283
     29 C           4.3303    0.5346   -1.9819 C.ar    1  UNL11      -0.0314
     30 H           0.3618    0.4841   -1.2907 H       1  UNL11       0.1731
     31 H           3.0746   -0.3496   -0.4523 H       1  UNL11       0.1731
     32 H          -0.1017   -3.4854    1.1534 H       1  UNL11       0.0625
     33 H          -2.5299   -3.9424    0.7772 H       1  UNL11       0.0618
     34 H          -3.7877   -2.5661   -0.7609 H       1  UNL11       0.0637
     35 H          -4.1304    1.8578   -2.0510 H       1  UNL11       0.1738
     36 H          -5.2066    0.2819    0.3442 H       1  UNL11       0.0637
     37 H          -5.0568    0.5644    2.7442 H       1  UNL11       0.0618
     38 H          -3.0761    1.8212    3.6640 H       1  UNL11       0.0618
     39 H          -1.4150    2.6837    2.1696 H       1  UNL11       0.0647
     40 H          -0.2973   -0.2565   -1.5799 H       1  UNL11       0.0645
     41 H           3.1530    1.0701   -5.0490 H       1  UNL11       0.0640
     42 H           5.4667    0.7795   -5.6081 H       1  UNL11       0.0830
     43 H           6.3990    0.1714   -1.5789 H       1  UNL11       0.0830
     44 H           3.9797    0.4705   -0.9636 H       1  UNL11       0.0640
@<TRIPOS>BOND
     1     1     2    2
     2     2     3   am
     3     2    24    1
     4     3     4    1
     5     3    30    1
     6     4     5   am
     7     4    31    1
     8     5     6    2
     9     5     7    1
    10     7     8   ar
    11     8     9   ar
    12     8    32    1
    13     9    10   ar
    14     9    33    1
    15    10    11   ar
    16    10    34    1
    17    11    12    1
    18    11    23   ar
    19    12    13    2
    20    12    14    2
    21    12    15    1
    22    15    16    1
    23    15    35    1
    24    16    17   ar
    25    17    18   ar
    26    17    36    1
    27    18    19   ar
    28    18    37    1
    29    19    20   ar
    30    19    38    1
    31    20    21   ar
    32    20    39    1
    33    21    22    1
    34    21    16   ar
    35    23     7   ar
    36    23    40    1
    37    24    25   ar
    38    25    26   ar
    39    25    41    1
    40    26    27   ar
    41    26    42    1
    42    27    28   ar
    43    28    29   ar
    44    28    43    1
    45    29    24   ar
    46    29    44    1
