@<TRIPOS>MOLECULE
*****
 48 50 0 0 0
SMALL
GASTEIGER

@<TRIPOS>ATOM
      1 O          -0.8449    1.6322   -0.3903 O.2     1  UNL11      -0.2652
      2 C          -0.3393    0.9047    0.5013 C.2     1  UNL11       0.2990
      3 N          -1.2000    0.0508    1.2415 N.am    1  UNL11      -0.3073
      4 C          -0.7508   -0.8197    2.2950 C.3     1  UNL11       0.0157
      5 C          -0.7893   -0.1502    3.6512 C.3     1  UNL11      -0.0161
      6 C           0.0801    1.0508    3.6104 C.2     1  UNL11      -0.0720
      7 C           0.2493    1.7005    2.4891 C.2     1  UNL11      -0.0847
      8 C           1.1300    2.8998    2.4937 C.3     1  UNL11      -0.0345
      9 C           0.8907    3.7947    3.6794 C.3     1  UNL11      -0.0493
     10 C           0.5340    3.0406    4.9310 C.3     1  UNL11      -0.0491
     11 C           0.7890    1.5668    4.8160 C.3     1  UNL11      -0.0317
     12 C           1.0992    0.9629    0.7415 C.2     1  UNL11       0.2993
     13 O           1.8929    0.2052    0.1294 O.2     1  UNL11      -0.2652
     14 N           1.6397    1.8765    1.6725 N.am    1  UNL11      -0.3018
     15 C           3.0552    1.9877    1.9614 C.3     1  UNL11       0.0606
     16 C           3.2293    3.0296    2.9894 C.2     1  UNL11       0.1319
     17 N           3.2161    2.7497    4.2878 N.2     1  UNL11      -0.0060
     18 N           3.3745    3.6935    5.2005 N.am    1  UNL11      -0.0355
     19 C           3.5574    4.9816    4.9011 C.2     1  UNL11       0.4383
     20 O           3.7098    5.8914    5.7671 O.2     1  UNL11      -0.2116
     21 C           3.5798    5.3303    3.5597 C.ar    1  UNL11       0.1005
     22 C           3.7640    6.6420    3.1586 C.ar    1  UNL11      -0.0441
     23 C           3.7820    6.9626    1.8107 C.ar    1  UNL11      -0.0608
     24 C           3.6164    5.9739    0.8686 C.ar    1  UNL11      -0.0611
     25 C           3.4338    4.6732    1.2663 C.ar    1  UNL11      -0.0517
     26 C           3.4156    4.3533    2.6080 C.ar    1  UNL11       0.0205
     27 H          -2.2244    0.0952    0.9621 H       1  UNL11       0.1492
     28 H           0.3045   -1.1633    2.1356 H       1  UNL11       0.0465
     29 H          -1.3684   -1.7251    2.2923 H       1  UNL11       0.0465
     30 H          -1.8266    0.2335    3.8670 H       1  UNL11       0.0325
     31 H          -0.4265   -0.8086    4.4563 H       1  UNL11       0.0325
     32 H          -0.2576    1.3479    1.5823 H       1  UNL11       0.0572
     33 H           0.8452    3.4877    1.5719 H       1  UNL11       0.0307
     34 H           2.1792    2.5313    2.4295 H       1  UNL11       0.0307
     35 H           0.0776    4.5097    3.4470 H       1  UNL11       0.0268
     36 H           1.8196    4.3649    3.8979 H       1  UNL11       0.0268
     37 H          -0.5568    3.1782    5.1734 H       1  UNL11       0.0268
     38 H           1.0778    3.4302    5.8246 H       1  UNL11       0.0268
     39 H           0.4630    1.0823    5.7512 H       1  UNL11       0.0310
     40 H           1.8960    1.4041    4.7134 H       1  UNL11       0.0310
     41 H           0.9582    2.4940    2.1652 H       1  UNL11       0.1495
     42 H           3.4170    1.0022    2.2624 H       1  UNL11       0.0529
     43 H           3.6342    2.3191    1.0724 H       1  UNL11       0.0529
     44 H           3.3601    3.4459    6.2208 H       1  UNL11       0.4829
     45 H           3.8941    7.4146    3.9263 H       1  UNL11       0.0627
     46 H           3.9282    8.0016    1.5040 H       1  UNL11       0.0618
     47 H           3.6247    6.1870   -0.1990 H       1  UNL11       0.0618
     48 H           3.2980    3.8525    0.5656 H       1  UNL11       0.0624
@<TRIPOS>BOND
     1     1     2    2
     2     2     3   am
     3     2    12    1
     4     3     4    1
     5     3    27    1
     6     4     5    1
     7     4    28    1
     8     4    29    1
     9     5     6    1
    10     5    30    1
    11     5    31    1
    12     6     7    2
    13     7     8    1
    14     7    32    1
    15     8     9    1
    16     8    33    1
    17     8    34    1
    18     9    10    1
    19     9    35    1
    20     9    36    1
    21    10    11    1
    22    10    37    1
    23    10    38    1
    24    11     6    1
    25    11    39    1
    26    11    40    1
    27    12    13    2
    28    12    14   am
    29    14    15    1
    30    14    41    1
    31    15    16    1
    32    15    42    1
    33    15    43    1
    34    16    17    2
    35    17    18    1
    36    18    19   am
    37    18    44    1
    38    19    20    2
    39    19    21    1
    40    21    22   ar
    41    22    23   ar
    42    22    45    1
    43    23    24   ar
    44    23    46    1
    45    24    25   ar
    46    24    47    1
    47    25    26   ar
    48    25    48    1
    49    26    16    1
    50    26    21   ar
@<TRIPOS>MOLECULE
*****
 48 50 0 0 0
SMALL
GASTEIGER

@<TRIPOS>ATOM
      1 O          -0.8449    1.6322   -0.3903 O.2     1  UNL11      -0.2652
      2 C          -0.3393    0.9047    0.5013 C.2     1  UNL11       0.2990
      3 N          -1.2000    0.0508    1.2415 N.am    1  UNL11      -0.3073
      4 C          -0.7508   -0.8197    2.2950 C.3     1  UNL11       0.0157
      5 C          -0.7893   -0.1502    3.6512 C.3     1  UNL11      -0.0161
      6 C           0.0801    1.0508    3.6104 C.2     1  UNL11      -0.0720
      7 C           0.2493    1.7005    2.4891 C.2     1  UNL11      -0.0847
      8 C           1.1300    2.8998    2.4937 C.3     1  UNL11      -0.0345
      9 C           0.8907    3.7947    3.6794 C.3     1  UNL11      -0.0493
     10 C           0.5340    3.0406    4.9310 C.3     1  UNL11      -0.0491
     11 C           0.7890    1.5668    4.8160 C.3     1  UNL11      -0.0317
     12 C           1.0992    0.9629    0.7415 C.2     1  UNL11       0.2993
     13 O           1.8929    0.2052    0.1294 O.2     1  UNL11      -0.2652
     14 N           1.6397    1.8765    1.6725 N.am    1  UNL11      -0.3018
     15 C           3.0552    1.9877    1.9614 C.3     1  UNL11       0.0606
     16 C           3.3658    1.0717    3.0737 C.2     1  UNL11       0.1319
     17 N           3.7363   -0.1873    2.8694 N.2     1  UNL11      -0.0060
     18 N           4.0134   -0.9989    3.8760 N.am    1  UNL11      -0.0355
     19 C           3.9459   -0.6298    5.1572 C.2     1  UNL11       0.4383
     20 O           4.2090   -1.3990    6.1268 O.2     1  UNL11      -0.2116
     21 C           3.5640    0.6747    5.4285 C.ar    1  UNL11       0.1005
     22 C           3.4676    1.1426    6.7274 C.ar    1  UNL11      -0.0441
     23 C           3.0834    2.4516    6.9699 C.ar    1  UNL11      -0.0608
     24 C           2.7971    3.2885    5.9163 C.ar    1  UNL11      -0.0611
     25 C           2.8928    2.8247    4.6282 C.ar    1  UNL11      -0.0517
     26 C           3.2751    1.5216    4.3860 C.ar    1  UNL11       0.0205
     27 H          -2.2244    0.0952    0.9621 H       1  UNL11       0.1492
     28 H           0.3045   -1.1633    2.1356 H       1  UNL11       0.0465
     29 H          -1.3684   -1.7251    2.2923 H       1  UNL11       0.0465
     30 H          -1.8266    0.2335    3.8670 H       1  UNL11       0.0325
     31 H          -0.4265   -0.8086    4.4563 H       1  UNL11       0.0325
     32 H          -0.2576    1.3479    1.5823 H       1  UNL11       0.0572
     33 H           0.8452    3.4877    1.5719 H       1  UNL11       0.0307
     34 H           2.1792    2.5313    2.4295 H       1  UNL11       0.0307
     35 H           0.0776    4.5097    3.4470 H       1  UNL11       0.0268
     36 H           1.8196    4.3649    3.8979 H       1  UNL11       0.0268
     37 H          -0.5568    3.1782    5.1734 H       1  UNL11       0.0268
     38 H           1.0778    3.4302    5.8246 H       1  UNL11       0.0268
     39 H           0.4630    1.0823    5.7512 H       1  UNL11       0.0310
     40 H           1.8960    1.4041    4.7134 H       1  UNL11       0.0310
     41 H           0.9582    2.4940    2.1652 H       1  UNL11       0.1495
     42 H           3.6053    1.7730    1.0428 H       1  UNL11       0.0529
     43 H           3.3284    3.0087    2.3053 H       1  UNL11       0.0529
     44 H           4.3041   -1.9902    3.6875 H       1  UNL11       0.4829
     45 H           3.7003    0.4586    7.5526 H       1  UNL11       0.0627
     46 H           3.0101    2.8117    7.9994 H       1  UNL11       0.0618
     47 H           2.4922    4.3227    6.0671 H       1  UNL11       0.0618
     48 H           2.6786    3.4416    3.7584 H       1  UNL11       0.0624
@<TRIPOS>BOND
     1     1     2    2
     2     2     3   am
     3     2    12    1
     4     3     4    1
     5     3    27    1
     6     4     5    1
     7     4    28    1
     8     4    29    1
     9     5     6    1
    10     5    30    1
    11     5    31    1
    12     6     7    2
    13     7     8    1
    14     7    32    1
    15     8     9    1
    16     8    33    1
    17     8    34    1
    18     9    10    1
    19     9    35    1
    20     9    36    1
    21    10    11    1
    22    10    37    1
    23    10    38    1
    24    11     6    1
    25    11    39    1
    26    11    40    1
    27    12    13    2
    28    12    14   am
    29    14    15    1
    30    14    41    1
    31    15    16    1
    32    15    42    1
    33    15    43    1
    34    16    17    2
    35    17    18    1
    36    18    19   am
    37    18    44    1
    38    19    20    2
    39    19    21    1
    40    21    22   ar
    41    22    23   ar
    42    22    45    1
    43    23    24   ar
    44    23    46    1
    45    24    25   ar
    46    24    47    1
    47    25    26   ar
    48    25    48    1
    49    26    16    1
    50    26    21   ar
@<TRIPOS>MOLECULE
*****
 48 50 0 0 0
SMALL
GASTEIGER

@<TRIPOS>ATOM
      1 O          -0.8449    1.6322   -0.3903 O.2     1  UNL11      -0.2652
      2 C          -0.3393    0.9047    0.5013 C.2     1  UNL11       0.2990
      3 N          -1.2000    0.0508    1.2415 N.am    1  UNL11      -0.3073
      4 C          -0.7508   -0.8197    2.2950 C.3     1  UNL11       0.0157
      5 C          -1.0449   -2.2750    2.0045 C.3     1  UNL11      -0.0161
      6 C          -2.5093   -2.4364    1.8333 C.2     1  UNL11      -0.0720
      7 C          -3.2286   -1.4481    1.3705 C.2     1  UNL11      -0.0847
      8 C          -4.6940   -1.6536    1.2147 C.3     1  UNL11      -0.0345
      9 C          -5.0346   -2.9857    0.6035 C.3     1  UNL11      -0.0493
     10 C          -4.0966   -4.0865    1.0166 C.3     1  UNL11      -0.0491
     11 C          -3.2199   -3.7023    2.1717 C.3     1  UNL11      -0.0317
     12 C           1.0992    0.9629    0.7415 C.2     1  UNL11       0.2993
     13 O           1.8929    0.2052    0.1294 O.2     1  UNL11      -0.2652
     14 N           1.6397    1.8765    1.6725 N.am    1  UNL11      -0.3018
     15 C           0.8386    2.7960    2.4550 C.3     1  UNL11       0.0606
     16 C           1.5315    3.0269    3.7354 C.2     1  UNL11       0.1319
     17 N           2.3078    2.1055    4.2945 N.2     1  UNL11      -0.0060
     18 N           2.9250    2.3253    5.4432 N.am    1  UNL11      -0.0355
     19 C           2.8226    3.4686    6.1251 C.2     1  UNL11       0.4383
     20 O           3.4091    3.6880    7.2245 O.2     1  UNL11      -0.2116
     21 C           2.0243    4.4658    5.5870 C.ar    1  UNL11       0.1005
     22 C           1.8613    5.6824    6.2261 C.ar    1  UNL11      -0.0441
     23 C           1.0572    6.6618    5.6656 C.ar    1  UNL11      -0.0608
     24 C           0.4192    6.4240    4.4703 C.ar    1  UNL11      -0.0611
     25 C           0.5809    5.2175    3.8364 C.ar    1  UNL11      -0.0517
     26 C           1.3812    4.2420    4.3939 C.ar    1  UNL11       0.0205
     27 H          -2.2244    0.0952    0.9621 H       1  UNL11       0.1492
     28 H          -1.2408   -0.5817    3.2750 H       1  UNL11       0.0465
     29 H           0.3235   -0.6644    2.4473 H       1  UNL11       0.0465
     30 H          -0.5893   -2.5753    1.0187 H       1  UNL11       0.0325
     31 H          -0.7198   -2.9411    2.8195 H       1  UNL11       0.0325
     32 H          -2.7377   -0.5018    1.1115 H       1  UNL11       0.0572
     33 H          -5.0353   -0.8586    0.4882 H       1  UNL11       0.0307
     34 H          -5.1505   -1.5049    2.2199 H       1  UNL11       0.0307
     35 H          -5.0249   -2.9011   -0.5006 H       1  UNL11       0.0268
     36 H          -6.0529   -3.2869    0.9324 H       1  UNL11       0.0268
     37 H          -3.4236   -4.3695    0.1595 H       1  UNL11       0.0268
     38 H          -4.6409   -5.0259    1.2761 H       1  UNL11       0.0268
     39 H          -2.5355   -4.5403    2.3841 H       1  UNL11       0.0310
     40 H          -3.8690   -3.5521    3.0765 H       1  UNL11       0.0310
     41 H           2.6771    1.8668    1.7828 H       1  UNL11       0.1495
     42 H           0.6875    3.7008    1.8626 H       1  UNL11       0.0529
     43 H          -0.1564    2.3684    2.7052 H       1  UNL11       0.0529
     44 H           3.5333    1.5802    5.8642 H       1  UNL11       0.4829
     45 H           2.3790    5.8512    7.1783 H       1  UNL11       0.0627
     46 H           0.9347    7.6196    6.1782 H       1  UNL11       0.0618
     47 H          -0.2202    7.1687    3.9993 H       1  UNL11       0.0618
     48 H           0.1010    4.9756    2.8908 H       1  UNL11       0.0624
@<TRIPOS>BOND
     1     1     2    2
     2     2     3   am
     3     2    12    1
     4     3     4    1
     5     3    27    1
     6     4     5    1
     7     4    28    1
     8     4    29    1
     9     5     6    1
    10     5    30    1
    11     5    31    1
    12     6     7    2
    13     7     8    1
    14     7    32    1
    15     8     9    1
    16     8    33    1
    17     8    34    1
    18     9    10    1
    19     9    35    1
    20     9    36    1
    21    10    11    1
    22    10    37    1
    23    10    38    1
    24    11     6    1
    25    11    39    1
    26    11    40    1
    27    12    13    2
    28    12    14   am
    29    14    15    1
    30    14    41    1
    31    15    16    1
    32    15    42    1
    33    15    43    1
    34    16    17    2
    35    17    18    1
    36    18    19   am
    37    18    44    1
    38    19    20    2
    39    19    21    1
    40    21    22   ar
    41    22    23   ar
    42    22    45    1
    43    23    24   ar
    44    23    46    1
    45    24    25   ar
    46    24    47    1
    47    25    26   ar
    48    25    48    1
    49    26    16    1
    50    26    21   ar
@<TRIPOS>MOLECULE
*****
 48 50 0 0 0
SMALL
GASTEIGER

@<TRIPOS>ATOM
      1 O          -0.8449    1.6322   -0.3903 O.2     1  UNL11      -0.2652
      2 C          -0.3393    0.9047    0.5013 C.2     1  UNL11       0.2990
      3 N          -1.2000    0.0508    1.2415 N.am    1  UNL11      -0.3073
      4 C          -0.7508   -0.8197    2.2950 C.3     1  UNL11       0.0157
      5 C          -1.8095   -1.0367    3.3537 C.3     1  UNL11      -0.0161
      6 C          -1.2541   -1.9264    4.4024 C.2     1  UNL11      -0.0720
      7 C          -1.9901   -2.2740    5.4250 C.2     1  UNL11      -0.0847
      8 C          -1.3927   -3.1680    6.4536 C.3     1  UNL11      -0.0345
      9 C          -0.6146   -4.3081    5.8548 C.3     1  UNL11      -0.0493
     10 C           0.0986   -3.9380    4.5833 C.3     1  UNL11      -0.0491
     11 C           0.1377   -2.4571    4.3468 C.3     1  UNL11      -0.0317
     12 C           1.0992    0.9629    0.7415 C.2     1  UNL11       0.2993
     13 O           1.5594    1.2943    1.8627 O.2     1  UNL11      -0.2652
     14 N           2.0162    0.6469   -0.2845 N.am    1  UNL11      -0.3018
     15 C           1.6224    0.2634   -1.6252 C.3     1  UNL11       0.0606
     16 C           1.4822   -1.2036   -1.6561 C.2     1  UNL11       0.1319
     17 N           1.7147   -1.9121   -2.7552 N.2     1  UNL11      -0.0060
     18 N           1.5864   -3.2283   -2.7698 N.am    1  UNL11      -0.0355
     19 C           1.2199   -3.9425   -1.7031 C.2     1  UNL11       0.4383
     20 O           1.0945   -5.2015   -1.7074 O.2     1  UNL11      -0.2116
     21 C           0.9645   -3.2531   -0.5280 C.ar    1  UNL11       0.1005
     22 C           0.5794   -3.9131    0.6260 C.ar    1  UNL11      -0.0441
     23 C           0.3304   -3.1990    1.7870 C.ar    1  UNL11      -0.0608
     24 C           0.4665   -1.8301    1.7926 C.ar    1  UNL11      -0.0611
     25 C           0.8484   -1.1756    0.6483 C.ar    1  UNL11      -0.0517
     26 C           1.0964   -1.8859   -0.5080 C.ar    1  UNL11       0.0205
     27 H          -2.2244    0.0952    0.9621 H       1  UNL11       0.1492
     28 H           0.1516   -0.4124    2.8212 H       1  UNL11       0.0465
     29 H          -0.4406   -1.7747    1.8557 H       1  UNL11       0.0465
     30 H          -2.0455   -0.0653    3.8737 H       1  UNL11       0.0325
     31 H          -2.7186   -1.5096    2.9494 H       1  UNL11       0.0325
     32 H          -3.0193   -1.9012    5.4975 H       1  UNL11       0.0572
     33 H          -2.2680   -3.6189    7.0075 H       1  UNL11       0.0307
     34 H          -0.7785   -2.5247    7.1243 H       1  UNL11       0.0307
     35 H          -1.2965   -5.1562    5.6502 H       1  UNL11       0.0268
     36 H           0.1624   -4.6376    6.5783 H       1  UNL11       0.0268
     37 H          -0.4112   -4.4096    3.6971 H       1  UNL11       0.0268
     38 H           1.1422   -4.3331    4.5576 H       1  UNL11       0.0268
     39 H           0.6344   -2.2711    3.3802 H       1  UNL11       0.0310
     40 H           0.7646   -1.9848    5.1509 H       1  UNL11       0.0310
     41 H           3.0278    0.7012   -0.0350 H       1  UNL11       0.1495
     42 H           0.7061    0.8023   -1.8753 H       1  UNL11       0.0529
     43 H           2.4002    0.5238   -2.3754 H       1  UNL11       0.0529
     44 H           1.7761   -3.7653   -3.6520 H       1  UNL11       0.4829
     45 H           0.4770   -5.0048    0.5996 H       1  UNL11       0.0627
     46 H           0.0267   -3.7294    2.6934 H       1  UNL11       0.0618
     47 H           0.2798   -1.2352    2.6850 H       1  UNL11       0.0618
     48 H           0.9715   -0.0963    0.5956 H       1  UNL11       0.0624
@<TRIPOS>BOND
     1     1     2    2
     2     2     3   am
     3     2    12    1
     4     3     4    1
     5     3    27    1
     6     4     5    1
     7     4    28    1
     8     4    29    1
     9     5     6    1
    10     5    30    1
    11     5    31    1
    12     6     7    2
    13     7     8    1
    14     7    32    1
    15     8     9    1
    16     8    33    1
    17     8    34    1
    18     9    10    1
    19     9    35    1
    20     9    36    1
    21    10    11    1
    22    10    37    1
    23    10    38    1
    24    11     6    1
    25    11    39    1
    26    11    40    1
    27    12    13    2
    28    12    14   am
    29    14    15    1
    30    14    41    1
    31    15    16    1
    32    15    42    1
    33    15    43    1
    34    16    17    2
    35    17    18    1
    36    18    19   am
    37    18    44    1
    38    19    20    2
    39    19    21    1
    40    21    22   ar
    41    22    23   ar
    42    22    45    1
    43    23    24   ar
    44    23    46    1
    45    24    25   ar
    46    24    47    1
    47    25    26   ar
    48    25    48    1
    49    26    16    1
    50    26    21   ar
@<TRIPOS>MOLECULE
*****
 48 50 0 0 0
SMALL
GASTEIGER

@<TRIPOS>ATOM
      1 O          -0.8449    1.6322   -0.3903 O.2     1  UNL11      -0.2652
      2 C          -0.3393    0.9047    0.5013 C.2     1  UNL11       0.2990
      3 N          -1.2000    0.0508    1.2415 N.am    1  UNL11      -0.3073
      4 C          -2.6208   -0.0299    1.0316 C.3     1  UNL11       0.0157
      5 C          -3.1726   -1.4030    1.3462 C.3     1  UNL11      -0.0161
      6 C          -2.4965   -2.3951    0.4753 C.2     1  UNL11      -0.0720
      7 C          -2.8156   -3.6603    0.5517 C.2     1  UNL11      -0.0847
      8 C          -2.1122   -4.6210   -0.3407 C.3     1  UNL11      -0.0345
      9 C          -1.9789   -4.1164   -1.7519 C.3     1  UNL11      -0.0493
     10 C          -1.7752   -2.6285   -1.8344 C.3     1  UNL11      -0.0491
     11 C          -1.4439   -2.0112   -0.5079 C.3     1  UNL11      -0.0317
     12 C           1.0992    0.9629    0.7415 C.2     1  UNL11       0.2993
     13 O           1.5594    1.2943    1.8627 O.2     1  UNL11      -0.2652
     14 N           2.0162    0.6469   -0.2845 N.am    1  UNL11      -0.3018
     15 C           1.6224    0.2634   -1.6252 C.3     1  UNL11       0.0606
     16 C           1.4822   -1.2036   -1.6561 C.2     1  UNL11       0.1319
     17 N           1.7147   -1.9121   -2.7552 N.2     1  UNL11      -0.0060
     18 N           1.5864   -3.2283   -2.7698 N.am    1  UNL11      -0.0355
     19 C           1.2199   -3.9425   -1.7031 C.2     1  UNL11       0.4383
     20 O           1.0945   -5.2015   -1.7074 O.2     1  UNL11      -0.2116
     21 C           0.9645   -3.2531   -0.5280 C.ar    1  UNL11       0.1005
     22 C           0.5794   -3.9131    0.6260 C.ar    1  UNL11      -0.0441
     23 C           0.3304   -3.1990    1.7870 C.ar    1  UNL11      -0.0608
     24 C           0.4665   -1.8301    1.7926 C.ar    1  UNL11      -0.0611
     25 C           0.8484   -1.1756    0.6483 C.ar    1  UNL11      -0.0517
     26 C           1.0964   -1.8859   -0.5080 C.ar    1  UNL11       0.0205
     27 H          -0.7173   -0.5414    1.9803 H       1  UNL11       0.1492
     28 H          -2.9027    0.1947   -0.0301 H       1  UNL11       0.0465
     29 H          -3.1122    0.7348    1.6442 H       1  UNL11       0.0465
     30 H          -2.9089   -1.6964    2.4017 H       1  UNL11       0.0325
     31 H          -4.2572   -1.4723    1.1667 H       1  UNL11       0.0325
     32 H          -3.5863   -3.9777    1.2648 H       1  UNL11       0.0572
     33 H          -2.7713   -5.5379   -0.3773 H       1  UNL11       0.0307
     34 H          -1.1314   -4.8476    0.1365 H       1  UNL11       0.0307
     35 H          -2.8835   -4.3876   -2.3302 H       1  UNL11       0.0268
     36 H          -1.0929   -4.5918   -2.2258 H       1  UNL11       0.0268
     37 H          -2.7068   -2.1266   -2.2187 H       1  UNL11       0.0268
     38 H          -0.9787   -2.3542   -2.5667 H       1  UNL11       0.0268
     39 H          -1.3540   -0.9206   -0.6432 H       1  UNL11       0.0310
     40 H          -0.4432   -2.3989   -0.1750 H       1  UNL11       0.0310
     41 H           3.0278    0.7012   -0.0350 H       1  UNL11       0.1495
     42 H           0.7061    0.8023   -1.8753 H       1  UNL11       0.0529
     43 H           2.4002    0.5238   -2.3754 H       1  UNL11       0.0529
     44 H           1.7761   -3.7653   -3.6520 H       1  UNL11       0.4829
     45 H           0.4770   -5.0048    0.5996 H       1  UNL11       0.0627
     46 H           0.0267   -3.7294    2.6934 H       1  UNL11       0.0618
     47 H           0.2798   -1.2352    2.6850 H       1  UNL11       0.0618
     48 H           0.9715   -0.0963    0.5956 H       1  UNL11       0.0624
@<TRIPOS>BOND
     1     1     2    2
     2     2     3   am
     3     2    12    1
     4     3     4    1
     5     3    27    1
     6     4     5    1
     7     4    28    1
     8     4    29    1
     9     5     6    1
    10     5    30    1
    11     5    31    1
    12     6     7    2
    13     7     8    1
    14     7    32    1
    15     8     9    1
    16     8    33    1
    17     8    34    1
    18     9    10    1
    19     9    35    1
    20     9    36    1
    21    10    11    1
    22    10    37    1
    23    10    38    1
    24    11     6    1
    25    11    39    1
    26    11    40    1
    27    12    13    2
    28    12    14   am
    29    14    15    1
    30    14    41    1
    31    15    16    1
    32    15    42    1
    33    15    43    1
    34    16    17    2
    35    17    18    1
    36    18    19   am
    37    18    44    1
    38    19    20    2
    39    19    21    1
    40    21    22   ar
    41    22    23   ar
    42    22    45    1
    43    23    24   ar
    44    23    46    1
    45    24    25   ar
    46    24    47    1
    47    25    26   ar
    48    25    48    1
    49    26    16    1
    50    26    21   ar
@<TRIPOS>MOLECULE
*****
 48 50 0 0 0
SMALL
GASTEIGER

@<TRIPOS>ATOM
      1 O          -0.8449    1.6322   -0.3903 O.2     1  UNL11      -0.2652
      2 C          -0.3393    0.9047    0.5013 C.2     1  UNL11       0.2990
      3 N          -1.2000    0.0508    1.2415 N.am    1  UNL11      -0.3073
      4 C          -0.7508   -0.8197    2.2950 C.3     1  UNL11       0.0157
      5 C           0.4655   -0.2762    3.0120 C.3     1  UNL11      -0.0161
      6 C           1.5591   -0.1050    2.0248 C.2     1  UNL11      -0.0720
      7 C           2.4513    0.8356    2.1906 C.2     1  UNL11      -0.0847
      8 C           3.5310    0.9715    1.1759 C.3     1  UNL11      -0.0345
      9 C           4.1185   -0.3523    0.7681 C.3     1  UNL11      -0.0493
     10 C           3.1093   -1.4671    0.7399 C.3     1  UNL11      -0.0491
     11 C           1.6946   -0.9748    0.8218 C.3     1  UNL11      -0.0317
     12 C           1.0992    0.9629    0.7415 C.2     1  UNL11       0.2993
     13 O           1.5880    1.7635    1.5775 O.2     1  UNL11      -0.2652
     14 N           1.9839    0.1172    0.0375 N.am    1  UNL11      -0.3018
     15 C           1.5563   -0.8409   -0.9619 C.3     1  UNL11       0.0606
     16 C           0.6209   -1.7816   -0.3195 C.2     1  UNL11       0.1319
     17 N           1.0334   -2.9055    0.2557 N.2     1  UNL11      -0.0060
     18 N           0.1842   -3.7409    0.8298 N.am    1  UNL11      -0.0355
     19 C          -1.1333   -3.5305    0.8791 C.2     1  UNL11       0.4383
     20 O          -1.9534   -4.3237    1.4260 O.2     1  UNL11      -0.2116
     21 C          -1.6190   -2.3718    0.2937 C.ar    1  UNL11       0.1005
     22 C          -2.9704   -2.0733    0.2983 C.ar    1  UNL11      -0.0441
     23 C          -3.4287   -0.9078   -0.2945 C.ar    1  UNL11      -0.0608
     24 C          -2.5376   -0.0448   -0.8892 C.ar    1  UNL11      -0.0611
     25 C          -1.1975   -0.3407   -0.8938 C.ar    1  UNL11      -0.0517
     26 C          -0.7406   -1.5009   -0.3039 C.ar    1  UNL11       0.0205
     27 H          -2.2244    0.0952    0.9621 H       1  UNL11       0.1492
     28 H          -0.4710   -1.8352    1.9111 H       1  UNL11       0.0465
     29 H          -1.5765   -0.9781    2.9982 H       1  UNL11       0.0465
     30 H           0.2534    0.7558    3.4117 H       1  UNL11       0.0325
     31 H           0.8230   -0.9512    3.8058 H       1  UNL11       0.0325
     32 H           2.3814    1.4940    3.0653 H       1  UNL11       0.0572
     33 H           4.3528    1.5561    1.6852 H       1  UNL11       0.0307
     34 H           3.1013    1.5407    0.3201 H       1  UNL11       0.0307
     35 H           4.9361   -0.6256    1.4632 H       1  UNL11       0.0268
     36 H           4.5339   -0.2647   -0.2593 H       1  UNL11       0.0268
     37 H           3.2753   -2.1674    1.6057 H       1  UNL11       0.0268
     38 H           3.2149   -2.1055   -0.1697 H       1  UNL11       0.0268
     39 H           1.0217   -1.8481    0.8400 H       1  UNL11       0.0310
     40 H           1.4680   -0.3868   -0.1085 H       1  UNL11       0.0310
     41 H           2.9968    0.2091    0.2702 H       1  UNL11       0.1495
     42 H           1.1245   -0.2869   -1.7981 H       1  UNL11       0.0529
     43 H           2.4057   -1.4483   -1.3430 H       1  UNL11       0.0529
     44 H           0.5360   -4.6230    1.2777 H       1  UNL11       0.4829
     45 H          -3.6636   -2.7752    0.7780 H       1  UNL11       0.0627
     46 H          -4.4981   -0.6810   -0.2857 H       1  UNL11       0.0618
     47 H          -2.8598    0.8800   -1.3648 H       1  UNL11       0.0618
     48 H          -0.4495    0.3046   -1.3488 H       1  UNL11       0.0624
@<TRIPOS>BOND
     1     1     2    2
     2     2     3   am
     3     2    12    1
     4     3     4    1
     5     3    27    1
     6     4     5    1
     7     4    28    1
     8     4    29    1
     9     5     6    1
    10     5    30    1
    11     5    31    1
    12     6     7    2
    13     7     8    1
    14     7    32    1
    15     8     9    1
    16     8    33    1
    17     8    34    1
    18     9    10    1
    19     9    35    1
    20     9    36    1
    21    10    11    1
    22    10    37    1
    23    10    38    1
    24    11     6    1
    25    11    39    1
    26    11    40    1
    27    12    13    2
    28    12    14   am
    29    14    15    1
    30    14    41    1
    31    15    16    1
    32    15    42    1
    33    15    43    1
    34    16    17    2
    35    17    18    1
    36    18    19   am
    37    18    44    1
    38    19    20    2
    39    19    21    1
    40    21    22   ar
    41    22    23   ar
    42    22    45    1
    43    23    24   ar
    44    23    46    1
    45    24    25   ar
    46    24    47    1
    47    25    26   ar
    48    25    48    1
    49    26    16    1
    50    26    21   ar
@<TRIPOS>MOLECULE
*****
 48 50 0 0 0
SMALL
GASTEIGER

@<TRIPOS>ATOM
      1 O          -0.8449    1.6322   -0.3903 O.2     1  UNL11      -0.2652
      2 C          -0.3393    0.9047    0.5013 C.2     1  UNL11       0.2990
      3 N          -1.2000    0.0508    1.2415 N.am    1  UNL11      -0.3073
      4 C          -2.6208   -0.0299    1.0316 C.3     1  UNL11       0.0157
      5 C          -3.4079    0.3373    2.2704 C.3     1  UNL11      -0.0161
      6 C          -3.0817    1.7360    2.6406 C.2     1  UNL11      -0.0720
      7 C          -3.9738    2.4818    3.2373 C.2     1  UNL11      -0.0847
      8 C          -3.6040    3.8790    3.5907 C.3     1  UNL11      -0.0345
      9 C          -2.2292    3.9842    4.1930 C.3     1  UNL11      -0.0493
     10 C          -1.2484    3.0040    3.6103 C.3     1  UNL11      -0.0491
     11 C          -1.7527    2.3493    2.3583 C.3     1  UNL11      -0.0317
     12 C           1.0992    0.9629    0.7415 C.2     1  UNL11       0.2993
     13 O           1.8404    1.7275    0.0747 O.2     1  UNL11      -0.2652
     14 N           1.6989    0.1577    1.7342 N.am    1  UNL11      -0.3018
     15 C           0.9649   -0.7761    2.5642 C.3     1  UNL11       0.0606
     16 C           1.8689   -1.8891    2.9057 C.2     1  UNL11       0.1319
     17 N           2.8516   -2.2737    2.0991 N.2     1  UNL11      -0.0060
     18 N           3.6567   -3.2733    2.4175 N.am    1  UNL11      -0.0355
     19 C           3.5528   -3.9670    3.5535 C.2     1  UNL11       0.4383
     20 O           4.3182   -4.9246    3.8668 O.2     1  UNL11      -0.2116
     21 C           2.5436   -3.6077    4.4331 C.ar    1  UNL11       0.1005
     22 C           2.3629   -4.2722    5.6336 C.ar    1  UNL11      -0.0441
     23 C           1.3458   -3.8921    6.4943 C.ar    1  UNL11      -0.0608
     24 C           0.5132   -2.8510    6.1545 C.ar    1  UNL11      -0.0611
     25 C           0.6924   -2.1920    4.9640 C.ar    1  UNL11      -0.0517
     26 C           1.7047   -2.5699    4.1066 C.ar    1  UNL11       0.0205
     27 H          -0.7173   -0.5414    1.9803 H       1  UNL11       0.1492
     28 H          -2.9449   -1.0625    0.7388 H       1  UNL11       0.0465
     29 H          -2.8915    0.6222    0.1932 H       1  UNL11       0.0465
     30 H          -4.5121    0.3326    2.0461 H       1  UNL11       0.0325
     31 H          -3.1674   -0.3094    3.1292 H       1  UNL11       0.0325
     32 H          -4.9626    2.0620    3.4600 H       1  UNL11       0.0572
     33 H          -4.3401    4.1944    4.3876 H       1  UNL11       0.0307
     34 H          -3.7236    4.4892    2.6663 H       1  UNL11       0.0307
     35 H          -2.2899    3.8240    5.2871 H       1  UNL11       0.0268
     36 H          -1.8246    5.0014    4.0002 H       1  UNL11       0.0268
     37 H          -1.0227    2.1880    4.3525 H       1  UNL11       0.0268
     38 H          -0.2606    3.4771    3.3950 H       1  UNL11       0.0268
     39 H          -1.0005    1.6176    2.0199 H       1  UNL11       0.0310
     40 H          -1.8502    3.1346    1.5606 H       1  UNL11       0.0310
     41 H           2.7300    0.2615    1.8548 H       1  UNL11       0.1495
     42 H           0.5847   -0.2311    3.4308 H       1  UNL11       0.0529
     43 H           0.1029   -1.2221    2.0225 H       1  UNL11       0.0529
     44 H           4.4262   -3.5580    1.7621 H       1  UNL11       0.4829
     45 H           3.0380   -5.0994    5.8849 H       1  UNL11       0.0627
     46 H           1.2112   -4.4233    7.4402 H       1  UNL11       0.0618
     47 H          -0.2965   -2.5239    6.8045 H       1  UNL11       0.0618
     48 H           0.0646   -1.3631    4.6449 H       1  UNL11       0.0624
@<TRIPOS>BOND
     1     1     2    2
     2     2     3   am
     3     2    12    1
     4     3     4    1
     5     3    27    1
     6     4     5    1
     7     4    28    1
     8     4    29    1
     9     5     6    1
    10     5    30    1
    11     5    31    1
    12     6     7    2
    13     7     8    1
    14     7    32    1
    15     8     9    1
    16     8    33    1
    17     8    34    1
    18     9    10    1
    19     9    35    1
    20     9    36    1
    21    10    11    1
    22    10    37    1
    23    10    38    1
    24    11     6    1
    25    11    39    1
    26    11    40    1
    27    12    13    2
    28    12    14   am
    29    14    15    1
    30    14    41    1
    31    15    16    1
    32    15    42    1
    33    15    43    1
    34    16    17    2
    35    17    18    1
    36    18    19   am
    37    18    44    1
    38    19    20    2
    39    19    21    1
    40    21    22   ar
    41    22    23   ar
    42    22    45    1
    43    23    24   ar
    44    23    46    1
    45    24    25   ar
    46    24    47    1
    47    25    26   ar
    48    25    48    1
    49    26    16    1
    50    26    21   ar
@<TRIPOS>MOLECULE
*****
 48 50 0 0 0
SMALL
GASTEIGER

@<TRIPOS>ATOM
      1 O          -0.8449    1.6322   -0.3903 O.2     1  UNL11      -0.2652
      2 C          -0.3393    0.9047    0.5013 C.2     1  UNL11       0.2990
      3 N          -1.2000    0.0508    1.2415 N.am    1  UNL11      -0.3073
      4 C          -2.6208   -0.0299    1.0316 C.3     1  UNL11       0.0157
      5 C          -3.0946    0.8972   -0.0661 C.3     1  UNL11      -0.0161
      6 C          -4.5656    0.7607   -0.1982 C.2     1  UNL11      -0.0720
      7 C          -5.1478   -0.3732    0.0905 C.2     1  UNL11      -0.0847
      8 C          -6.6256   -0.4657   -0.0562 C.3     1  UNL11      -0.0345
      9 C          -7.3429    0.7377    0.4925 C.3     1  UNL11      -0.0493
     10 C          -6.5835    2.0216    0.2993 C.3     1  UNL11      -0.0491
     11 C          -5.4353    1.8815   -0.6559 C.3     1  UNL11      -0.0317
     12 C           1.0992    0.9629    0.7415 C.2     1  UNL11       0.2993
     13 O           1.8404    1.7275    0.0747 O.2     1  UNL11      -0.2652
     14 N           1.6989    0.1577    1.7342 N.am    1  UNL11      -0.3018
     15 C           3.1183    0.1632    2.0251 C.3     1  UNL11       0.0606
     16 C           3.6349   -1.1983    1.7972 C.2     1  UNL11       0.1319
     17 N           4.8822   -1.4231    1.4000 N.2     1  UNL11      -0.0060
     18 N           5.3341   -2.6498    1.1999 N.am    1  UNL11      -0.0355
     19 C           4.5905   -3.7444    1.3764 C.2     1  UNL11       0.4383
     20 O           5.0139   -4.9217    1.1876 O.2     1  UNL11      -0.2116
     21 C           3.2796   -3.5680    1.7909 C.ar    1  UNL11       0.1005
     22 C           2.4377   -4.6466    1.9987 C.ar    1  UNL11      -0.0441
     23 C           1.1316   -4.4414    2.4132 C.ar    1  UNL11      -0.0608
     24 C           0.6705   -3.1617    2.6187 C.ar    1  UNL11      -0.0611
     25 C           1.5053   -2.0921    2.4127 C.ar    1  UNL11      -0.0517
     26 C           2.8058   -2.2956    2.0000 C.ar    1  UNL11       0.0205
     27 H          -0.7173   -0.5414    1.9803 H       1  UNL11       0.1492
     28 H          -3.1984    0.2415    1.9535 H       1  UNL11       0.0465
     29 H          -2.8855   -1.0686    0.8026 H       1  UNL11       0.0465
     30 H          -2.9145    1.9706    0.2257 H       1  UNL11       0.0325
     31 H          -2.6397    0.6619   -1.0414 H       1  UNL11       0.0325
     32 H          -4.5375   -1.2191    0.4304 H       1  UNL11       0.0572
     33 H          -6.9369   -1.3519    0.5716 H       1  UNL11       0.0307
     34 H          -6.8332   -0.6431   -1.1362 H       1  UNL11       0.0307
     35 H          -7.5362    0.5941    1.5733 H       1  UNL11       0.0268
     36 H          -8.3147    0.8534   -0.0346 H       1  UNL11       0.0268
     37 H          -6.1659    2.3809    1.2811 H       1  UNL11       0.0268
     38 H          -7.2435    2.8504   -0.0521 H       1  UNL11       0.0268
     39 H          -4.9059    2.8472   -0.7093 H       1  UNL11       0.0310
     40 H          -5.8473    1.6595   -1.6775 H       1  UNL11       0.0310
     41 H           1.0599   -0.4666    2.2732 H       1  UNL11       0.1495
     42 H           3.5881    0.9265    1.4012 H       1  UNL11       0.0529
     43 H           3.3214    0.4054    3.0908 H       1  UNL11       0.0529
     44 H           6.3247   -2.8005    0.8858 H       1  UNL11       0.4829
     45 H           2.8257   -5.6585    1.8290 H       1  UNL11       0.0627
     46 H           0.4743   -5.2999    2.5745 H       1  UNL11       0.0618
     47 H          -0.3489   -2.9609    2.9441 H       1  UNL11       0.0618
     48 H           1.1942   -1.0603    2.5596 H       1  UNL11       0.0624
@<TRIPOS>BOND
     1     1     2    2
     2     2     3   am
     3     2    12    1
     4     3     4    1
     5     3    27    1
     6     4     5    1
     7     4    28    1
     8     4    29    1
     9     5     6    1
    10     5    30    1
    11     5    31    1
    12     6     7    2
    13     7     8    1
    14     7    32    1
    15     8     9    1
    16     8    33    1
    17     8    34    1
    18     9    10    1
    19     9    35    1
    20     9    36    1
    21    10    11    1
    22    10    37    1
    23    10    38    1
    24    11     6    1
    25    11    39    1
    26    11    40    1
    27    12    13    2
    28    12    14   am
    29    14    15    1
    30    14    41    1
    31    15    16    1
    32    15    42    1
    33    15    43    1
    34    16    17    2
    35    17    18    1
    36    18    19   am
    37    18    44    1
    38    19    20    2
    39    19    21    1
    40    21    22   ar
    41    22    23   ar
    42    22    45    1
    43    23    24   ar
    44    23    46    1
    45    24    25   ar
    46    24    47    1
    47    25    26   ar
    48    25    48    1
    49    26    16    1
    50    26    21   ar
@<TRIPOS>MOLECULE
*****
 48 50 0 0 0
SMALL
GASTEIGER

@<TRIPOS>ATOM
      1 O          -0.8449    1.6322   -0.3903 O.2     1  UNL11      -0.2652
      2 C          -0.3393    0.9047    0.5013 C.2     1  UNL11       0.2990
      3 N          -1.2000    0.0508    1.2415 N.am    1  UNL11      -0.3073
      4 C          -0.7508   -0.8197    2.2950 C.3     1  UNL11       0.0157
      5 C          -0.7893   -0.1502    3.6512 C.3     1  UNL11      -0.0161
      6 C          -2.1900    0.2372    3.9477 C.2     1  UNL11      -0.0720
      7 C          -2.4947    1.4919    4.1506 C.2     1  UNL11      -0.0847
      8 C          -3.9121    1.8357    4.4449 C.3     1  UNL11      -0.0345
      9 C          -4.8849    1.1154    3.5511 C.3     1  UNL11      -0.0493
     10 C          -4.4419   -0.2757    3.1893 C.3     1  UNL11      -0.0491
     11 C          -3.2959   -0.7590    4.0281 C.3     1  UNL11      -0.0317
     12 C           1.0992    0.9629    0.7415 C.2     1  UNL11       0.2993
     13 O           1.8404    1.7275    0.0747 O.2     1  UNL11      -0.2652
     14 N           1.6989    0.1577    1.7342 N.am    1  UNL11      -0.3018
     15 C           0.9649   -0.7761    2.5642 C.3     1  UNL11       0.0606
     16 C           1.9217   -1.4152    3.4856 C.2     1  UNL11       0.1319
     17 N           3.1970   -1.5993    3.1634 N.2     1  UNL11      -0.0060
     18 N           4.0459   -2.1731    3.9994 N.am    1  UNL11      -0.0355
     19 C           3.7006   -2.6074    5.2138 C.2     1  UNL11       0.4383
     20 O           4.5054   -3.1574    6.0204 O.2     1  UNL11      -0.2116
     21 C           2.3806   -2.4404    5.6021 C.ar    1  UNL11       0.1005
     22 C           1.9354   -2.8608    6.8433 C.ar    1  UNL11      -0.0441
     23 C           0.6101   -2.6814    7.2058 C.ar    1  UNL11      -0.0608
     24 C          -0.2655   -2.0834    6.3293 C.ar    1  UNL11      -0.0611
     25 C           0.1759   -1.6664    5.0986 C.ar    1  UNL11      -0.0517
     26 C           1.4951   -1.8448    4.7370 C.ar    1  UNL11       0.0205
     27 H          -2.2244    0.0952    0.9621 H       1  UNL11       0.1492
     28 H           0.3045   -1.1633    2.1356 H       1  UNL11       0.0465
     29 H          -1.3684   -1.7251    2.2923 H       1  UNL11       0.0465
     30 H          -0.5006   -0.8839    4.4562 H       1  UNL11       0.0325
     31 H          -0.1670    0.7580    3.6903 H       1  UNL11       0.0325
     32 H          -1.7049    2.2515    4.0990 H       1  UNL11       0.0572
     33 H          -4.0089    2.9385    4.2195 H       1  UNL11       0.0307
     34 H          -4.0775    1.6286    5.5269 H       1  UNL11       0.0307
     35 H          -5.0358    1.6974    2.6212 H       1  UNL11       0.0268
     36 H          -5.8593    1.0189    4.0774 H       1  UNL11       0.0268
     37 H          -4.1144   -0.3146    2.1129 H       1  UNL11       0.0268
     38 H          -5.2761   -1.0137    3.2622 H       1  UNL11       0.0268
     39 H          -3.0031   -1.7614    3.6744 H       1  UNL11       0.0310
     40 H          -3.6497   -0.8599    5.0898 H       1  UNL11       0.0310
     41 H           2.7300    0.2615    1.8548 H       1  UNL11       0.1495
     42 H           0.1655   -0.2263    3.0654 H       1  UNL11       0.0529
     43 H           0.5083   -1.5927    1.9641 H       1  UNL11       0.0529
     44 H           5.0492   -2.3071    3.7204 H       1  UNL11       0.4829
     45 H           2.6502   -3.3352    7.5267 H       1  UNL11       0.0627
     46 H           0.2681   -3.0169    8.1884 H       1  UNL11       0.0618
     47 H          -1.3135   -1.9254    6.5784 H       1  UNL11       0.0618
     48 H          -0.4718   -1.1885    4.3671 H       1  UNL11       0.0624
@<TRIPOS>BOND
     1     1     2    2
     2     2     3   am
     3     2    12    1
     4     3     4    1
     5     3    27    1
     6     4     5    1
     7     4    28    1
     8     4    29    1
     9     5     6    1
    10     5    30    1
    11     5    31    1
    12     6     7    2
    13     7     8    1
    14     7    32    1
    15     8     9    1
    16     8    33    1
    17     8    34    1
    18     9    10    1
    19     9    35    1
    20     9    36    1
    21    10    11    1
    22    10    37    1
    23    10    38    1
    24    11     6    1
    25    11    39    1
    26    11    40    1
    27    12    13    2
    28    12    14   am
    29    14    15    1
    30    14    41    1
    31    15    16    1
    32    15    42    1
    33    15    43    1
    34    16    17    2
    35    17    18    1
    36    18    19   am
    37    18    44    1
    38    19    20    2
    39    19    21    1
    40    21    22   ar
    41    22    23   ar
    42    22    45    1
    43    23    24   ar
    44    23    46    1
    45    24    25   ar
    46    24    47    1
    47    25    26   ar
    48    25    48    1
    49    26    16    1
    50    26    21   ar
@<TRIPOS>MOLECULE
*****
 48 50 0 0 0
SMALL
GASTEIGER

@<TRIPOS>ATOM
      1 O          -0.8449    1.6322   -0.3903 O.2     1  UNL11      -0.2652
      2 C          -0.3393    0.9047    0.5013 C.2     1  UNL11       0.2990
      3 N          -1.2000    0.0508    1.2415 N.am    1  UNL11      -0.3073
      4 C          -0.7508   -0.8197    2.2950 C.3     1  UNL11       0.0157
      5 C          -1.0449   -2.2750    2.0045 C.3     1  UNL11      -0.0161
      6 C          -0.3348   -2.6619    0.7612 C.2     1  UNL11      -0.0720
      7 C          -0.1071   -1.7718   -0.1683 C.2     1  UNL11      -0.0847
      8 C           0.6086   -2.2035   -1.3993 C.3     1  UNL11      -0.0345
      9 C           1.7910   -3.0871   -1.1073 C.3     1  UNL11      -0.0493
     10 C           1.5772   -3.9956    0.0722 C.3     1  UNL11      -0.0491
     11 C           0.1443   -4.0514    0.5127 C.3     1  UNL11      -0.0317
     12 C           1.0992    0.9629    0.7415 C.2     1  UNL11       0.2993
     13 O           1.5594    1.2943    1.8627 O.2     1  UNL11      -0.2652
     14 N           2.0162    0.6469   -0.2845 N.am    1  UNL11      -0.3018
     15 C           3.4550    0.6846   -0.1171 C.3     1  UNL11       0.0606
     16 C           3.8154   -0.2781    0.9393 C.2     1  UNL11       0.1319
     17 N           4.8682   -0.0986    1.7290 N.2     1  UNL11      -0.0060
     18 N           5.1806   -0.9694    2.6740 N.am    1  UNL11      -0.0355
     19 C           4.4789   -2.0804    2.9102 C.2     1  UNL11       0.4383
     20 O           4.7698   -2.9190    3.8118 O.2     1  UNL11      -0.2116
     21 C           3.3689   -2.3178    2.1147 C.ar    1  UNL11       0.1005
     22 C           2.5840   -3.4443    2.2897 C.ar    1  UNL11      -0.0441
     23 C           1.4798   -3.6568    1.4801 C.ar    1  UNL11      -0.0608
     24 C           1.1628   -2.7454    0.4997 C.ar    1  UNL11      -0.0611
     25 C           1.9410   -1.6284    0.3262 C.ar    1  UNL11      -0.0517
     26 C           3.0405   -1.4161    1.1318 C.ar    1  UNL11       0.0205
     27 H          -2.2244    0.0952    0.9621 H       1  UNL11       0.1492
     28 H          -1.2408   -0.5817    3.2750 H       1  UNL11       0.0465
     29 H           0.3235   -0.6644    2.4473 H       1  UNL11       0.0465
     30 H          -0.6150   -2.9287    2.8154 H       1  UNL11       0.0325
     31 H          -2.1199   -2.4664    1.8588 H       1  UNL11       0.0325
     32 H          -0.4463   -0.7395   -0.0180 H       1  UNL11       0.0572
     33 H           1.0101   -1.2553   -1.8640 H       1  UNL11       0.0307
     34 H          -0.1464   -2.6885   -2.0595 H       1  UNL11       0.0307
     35 H           2.6853   -2.4611   -0.9210 H       1  UNL11       0.0268
     36 H           1.9845   -3.7381   -1.9873 H       1  UNL11       0.0268
     37 H           2.1888   -3.6469    0.9508 H       1  UNL11       0.0268
     38 H           1.9314   -5.0348   -0.1294 H       1  UNL11       0.0268
     39 H           0.0779   -4.6987    1.4027 H       1  UNL11       0.0310
     40 H          -0.4609   -4.5292   -0.3046 H       1  UNL11       0.0310
     41 H           1.6066    0.3741   -1.2045 H       1  UNL11       0.1495
     42 H           3.9135    0.4734   -1.0854 H       1  UNL11       0.0529
     43 H           3.8053    1.6812    0.2288 H       1  UNL11       0.0529
     44 H           6.0183   -0.8042    3.2851 H       1  UNL11       0.4829
     45 H           2.8547   -4.1581    3.0773 H       1  UNL11       0.0627
     46 H           0.8662   -4.5497    1.6262 H       1  UNL11       0.0618
     47 H           0.3035   -2.8781   -0.1555 H       1  UNL11       0.0618
     48 H           1.7372   -0.8759   -0.4322 H       1  UNL11       0.0624
@<TRIPOS>BOND
     1     1     2    2
     2     2     3   am
     3     2    12    1
     4     3     4    1
     5     3    27    1
     6     4     5    1
     7     4    28    1
     8     4    29    1
     9     5     6    1
    10     5    30    1
    11     5    31    1
    12     6     7    2
    13     7     8    1
    14     7    32    1
    15     8     9    1
    16     8    33    1
    17     8    34    1
    18     9    10    1
    19     9    35    1
    20     9    36    1
    21    10    11    1
    22    10    37    1
    23    10    38    1
    24    11     6    1
    25    11    39    1
    26    11    40    1
    27    12    13    2
    28    12    14   am
    29    14    15    1
    30    14    41    1
    31    15    16    1
    32    15    42    1
    33    15    43    1
    34    16    17    2
    35    17    18    1
    36    18    19   am
    37    18    44    1
    38    19    20    2
    39    19    21    1
    40    21    22   ar
    41    22    23   ar
    42    22    45    1
    43    23    24   ar
    44    23    46    1
    45    24    25   ar
    46    24    47    1
    47    25    26   ar
    48    25    48    1
    49    26    16    1
    50    26    21   ar
@<TRIPOS>MOLECULE
*****
 48 50 0 0 0
SMALL
GASTEIGER

@<TRIPOS>ATOM
      1 O          -0.8449    1.6322   -0.3903 O.2     1  UNL11      -0.2652
      2 C          -0.3393    0.9047    0.5013 C.2     1  UNL11       0.2990
      3 N          -1.2000    0.0508    1.2415 N.am    1  UNL11      -0.3073
      4 C          -0.7508   -0.8197    2.2950 C.3     1  UNL11       0.0157
      5 C          -1.0449   -2.2750    2.0045 C.3     1  UNL11      -0.0161
      6 C          -0.5665   -3.0912    3.1468 C.2     1  UNL11      -0.0720
      7 C           0.4526   -2.6888    3.8593 C.2     1  UNL11      -0.0847
      8 C           0.8991   -3.5387    4.9961 C.3     1  UNL11      -0.0345
      9 C          -0.2468   -4.0581    5.8215 C.3     1  UNL11      -0.0493
     10 C          -1.4745   -4.3640    5.0082 C.3     1  UNL11      -0.0491
     11 C          -1.2065   -4.3811    3.5323 C.3     1  UNL11      -0.0317
     12 C           1.0992    0.9629    0.7415 C.2     1  UNL11       0.2993
     13 O           1.8929    0.2052    0.1294 O.2     1  UNL11      -0.2652
     14 N           1.6397    1.8765    1.6725 N.am    1  UNL11      -0.3018
     15 C           0.8386    2.7960    2.4550 C.3     1  UNL11       0.0606
     16 C          -0.0831    2.0018    3.2871 C.2     1  UNL11       0.1319
     17 N          -1.2799    2.4540    3.6439 N.2     1  UNL11      -0.0060
     18 N          -2.0984    1.7312    4.3899 N.am    1  UNL11      -0.0355
     19 C          -1.7978    0.5104    4.8390 C.2     1  UNL11       0.4383
     20 O          -2.5740   -0.1885    5.5531 O.2     1  UNL11      -0.2116
     21 C          -0.5601   -0.0111    4.4963 C.ar    1  UNL11       0.1005
     22 C          -0.1658   -1.2690    4.9180 C.ar    1  UNL11      -0.0441
     23 C           1.0773   -1.7658    4.5607 C.ar    1  UNL11      -0.0608
     24 C           1.9219   -1.0066    3.7843 C.ar    1  UNL11      -0.0611
     25 C           1.5308    0.2406    3.3659 C.ar    1  UNL11      -0.0517
     26 C           0.2934    0.7360    3.7214 C.ar    1  UNL11       0.0205
     27 H          -2.2244    0.0952    0.9621 H       1  UNL11       0.1492
     28 H          -1.2408   -0.5817    3.2750 H       1  UNL11       0.0465
     29 H           0.3235   -0.6644    2.4473 H       1  UNL11       0.0465
     30 H          -2.1577   -2.4453    1.9552 H       1  UNL11       0.0325
     31 H          -0.5407   -2.6327    1.0928 H       1  UNL11       0.0325
     32 H           0.9475   -1.7438    3.6031 H       1  UNL11       0.0572
     33 H           1.5058   -2.8577    5.6628 H       1  UNL11       0.0307
     34 H           1.5301   -4.3496    4.5658 H       1  UNL11       0.0307
     35 H          -0.5084   -3.3171    6.6017 H       1  UNL11       0.0268
     36 H           0.0604   -5.0061    6.3141 H       1  UNL11       0.0268
     37 H          -2.2725   -3.5931    5.1991 H       1  UNL11       0.0268
     38 H          -1.9391   -5.3361    5.2998 H       1  UNL11       0.0268
     39 H          -2.1579   -4.5671    3.0070 H       1  UNL11       0.0310
     40 H          -0.5166   -5.2385    3.3058 H       1  UNL11       0.0310
     41 H           2.6771    1.8668    1.7828 H       1  UNL11       0.1495
     42 H           1.5170    3.4322    3.0274 H       1  UNL11       0.0529
     43 H           0.2061    3.4448    1.8113 H       1  UNL11       0.0529
     44 H          -3.0394    2.1119    4.6584 H       1  UNL11       0.4829
     45 H          -0.8546   -1.8575    5.5363 H       1  UNL11       0.0627
     46 H           1.3796   -2.7605    4.8988 H       1  UNL11       0.0618
     47 H           2.9056   -1.3629    3.4835 H       1  UNL11       0.0618
     48 H           2.1572    0.8833    2.7514 H       1  UNL11       0.0624
@<TRIPOS>BOND
     1     1     2    2
     2     2     3   am
     3     2    12    1
     4     3     4    1
     5     3    27    1
     6     4     5    1
     7     4    28    1
     8     4    29    1
     9     5     6    1
    10     5    30    1
    11     5    31    1
    12     6     7    2
    13     7     8    1
    14     7    32    1
    15     8     9    1
    16     8    33    1
    17     8    34    1
    18     9    10    1
    19     9    35    1
    20     9    36    1
    21    10    11    1
    22    10    37    1
    23    10    38    1
    24    11     6    1
    25    11    39    1
    26    11    40    1
    27    12    13    2
    28    12    14   am
    29    14    15    1
    30    14    41    1
    31    15    16    1
    32    15    42    1
    33    15    43    1
    34    16    17    2
    35    17    18    1
    36    18    19   am
    37    18    44    1
    38    19    20    2
    39    19    21    1
    40    21    22   ar
    41    22    23   ar
    42    22    45    1
    43    23    24   ar
    44    23    46    1
    45    24    25   ar
    46    24    47    1
    47    25    26   ar
    48    25    48    1
    49    26    16    1
    50    26    21   ar
@<TRIPOS>MOLECULE
*****
 48 50 0 0 0
SMALL
GASTEIGER

@<TRIPOS>ATOM
      1 O          -0.8449    1.6322   -0.3903 O.2     1  UNL11      -0.2652
      2 C          -0.3393    0.9047    0.5013 C.2     1  UNL11       0.2990
      3 N          -1.2000    0.0508    1.2415 N.am    1  UNL11      -0.3073
      4 C          -2.6208   -0.0299    1.0316 C.3     1  UNL11       0.0157
      5 C          -3.1726   -1.4030    1.3462 C.3     1  UNL11      -0.0161
      6 C          -2.9060   -1.7040    2.7739 C.2     1  UNL11      -0.0720
      7 C          -2.1810   -2.7409    3.1015 C.2     1  UNL11      -0.0847
      8 C          -1.9388   -3.0055    4.5455 C.3     1  UNL11      -0.0345
      9 C          -1.5945   -1.7604    5.3170 C.3     1  UNL11      -0.0493
     10 C          -2.3150   -0.5363    4.8224 C.3     1  UNL11      -0.0491
     11 C          -3.4380   -0.8610    3.8823 C.3     1  UNL11      -0.0317
     12 C           1.0992    0.9629    0.7415 C.2     1  UNL11       0.2993
     13 O           1.8404    1.7275    0.0747 O.2     1  UNL11      -0.2652
     14 N           1.6989    0.1577    1.7342 N.am    1  UNL11      -0.3018
     15 C           0.9649   -0.7761    2.5642 C.3     1  UNL11       0.0606
     16 C           0.5288   -0.0611    3.7771 C.2     1  UNL11       0.1319
     17 N           0.3790   -0.6768    4.9444 N.2     1  UNL11      -0.0060
     18 N          -0.0119   -0.0238    6.0259 N.am    1  UNL11      -0.0355
     19 C          -0.2839    1.2833    6.0366 C.2     1  UNL11       0.4383
     20 O          -0.6584    1.9165    7.0659 O.2     1  UNL11      -0.2116
     21 C          -0.1441    1.9761    4.8442 C.ar    1  UNL11       0.1005
     22 C          -0.4047    3.3330    4.7639 C.ar    1  UNL11      -0.0441
     23 C          -0.2567    4.0008    3.5589 C.ar    1  UNL11      -0.0608
     24 C           0.1504    3.3130    2.4393 C.ar    1  UNL11      -0.0611
     25 C           0.4089    1.9675    2.5189 C.ar    1  UNL11      -0.0517
     26 C           0.2618    1.3020    3.7182 C.ar    1  UNL11       0.0205
     27 H          -0.7173   -0.5414    1.9803 H       1  UNL11       0.1492
     28 H          -2.9027    0.1947   -0.0301 H       1  UNL11       0.0465
     29 H          -3.1122    0.7348    1.6442 H       1  UNL11       0.0465
     30 H          -4.2944   -1.4059    1.2399 H       1  UNL11       0.0325
     31 H          -2.7070   -2.1937    0.7367 H       1  UNL11       0.0325
     32 H          -1.7738   -3.3830    2.3107 H       1  UNL11       0.0572
     33 H          -1.0326   -3.6791    4.5817 H       1  UNL11       0.0307
     34 H          -2.8438   -3.5247    4.9358 H       1  UNL11       0.0307
     35 H          -0.5031   -1.5807    5.2641 H       1  UNL11       0.0268
     36 H          -1.8850   -1.9000    6.3809 H       1  UNL11       0.0268
     37 H          -1.6023    0.1438    4.2773 H       1  UNL11       0.0268
     38 H          -2.7163    0.0816    5.6609 H       1  UNL11       0.0268
     39 H          -3.8844    0.0844    3.5322 H       1  UNL11       0.0310
     40 H          -4.2273   -1.4228    4.4514 H       1  UNL11       0.0310
     41 H           2.7300    0.2615    1.8548 H       1  UNL11       0.1495
     42 H           0.1444   -1.1836    1.9699 H       1  UNL11       0.0529
     43 H           1.6051   -1.6183    2.9052 H       1  UNL11       0.0529
     44 H          -0.1228   -0.5340    6.9369 H       1  UNL11       0.4829
     45 H          -0.7282    3.8620    5.6687 H       1  UNL11       0.0627
     46 H          -0.4650    5.0727    3.5057 H       1  UNL11       0.0618
     47 H           0.2779    3.8031    1.4755 H       1  UNL11       0.0618
     48 H           0.7331    1.3747    1.6666 H       1  UNL11       0.0624
@<TRIPOS>BOND
     1     1     2    2
     2     2     3   am
     3     2    12    1
     4     3     4    1
     5     3    27    1
     6     4     5    1
     7     4    28    1
     8     4    29    1
     9     5     6    1
    10     5    30    1
    11     5    31    1
    12     6     7    2
    13     7     8    1
    14     7    32    1
    15     8     9    1
    16     8    33    1
    17     8    34    1
    18     9    10    1
    19     9    35    1
    20     9    36    1
    21    10    11    1
    22    10    37    1
    23    10    38    1
    24    11     6    1
    25    11    39    1
    26    11    40    1
    27    12    13    2
    28    12    14   am
    29    14    15    1
    30    14    41    1
    31    15    16    1
    32    15    42    1
    33    15    43    1
    34    16    17    2
    35    17    18    1
    36    18    19   am
    37    18    44    1
    38    19    20    2
    39    19    21    1
    40    21    22   ar
    41    22    23   ar
    42    22    45    1
    43    23    24   ar
    44    23    46    1
    45    24    25   ar
    46    24    47    1
    47    25    26   ar
    48    25    48    1
    49    26    16    1
    50    26    21   ar
@<TRIPOS>MOLECULE
*****
 48 50 0 0 0
SMALL
GASTEIGER

@<TRIPOS>ATOM
      1 O          -0.8449    1.6322   -0.3903 O.2     1  UNL11      -0.2652
      2 C          -0.3393    0.9047    0.5013 C.2     1  UNL11       0.2990
      3 N          -1.2000    0.0508    1.2415 N.am    1  UNL11      -0.3073
      4 C          -0.7508   -0.8197    2.2950 C.3     1  UNL11       0.0157
      5 C           0.7413   -0.7229    2.5254 C.3     1  UNL11      -0.0161
      6 C           1.0702    0.6699    2.9151 C.2     1  UNL11      -0.0720
      7 C           0.7875    1.6604    2.1106 C.2     1  UNL11      -0.0847
      8 C           1.1349    3.0415    2.5417 C.3     1  UNL11      -0.0345
      9 C           0.7796    3.3110    3.9787 C.3     1  UNL11      -0.0493
     10 C           0.9535    2.1113    4.8691 C.3     1  UNL11      -0.0491
     11 C           1.7243    1.0047    4.2121 C.3     1  UNL11      -0.0317
     12 C           1.0992    0.9629    0.7415 C.2     1  UNL11       0.2993
     13 O           1.8404    1.7275    0.0747 O.2     1  UNL11      -0.2652
     14 N           1.6989    0.1577    1.7342 N.am    1  UNL11      -0.3018
     15 C           3.1183    0.1632    2.0251 C.3     1  UNL11       0.0606
     16 C           3.8362    0.5004    0.7826 C.2     1  UNL11       0.1319
     17 N           3.3564    0.1903   -0.4164 N.2     1  UNL11      -0.0060
     18 N           4.0096    0.4994   -1.5240 N.am    1  UNL11      -0.0355
     19 C           5.1829    1.1364   -1.5314 C.2     1  UNL11       0.4383
     20 O           5.8151    1.4363   -2.5855 O.2     1  UNL11      -0.2116
     21 C           5.7302    1.4843   -0.3064 C.ar    1  UNL11       0.1005
     22 C           6.9425    2.1465   -0.2202 C.ar    1  UNL11      -0.0441
     23 C           7.4667    2.4823    1.0177 C.ar    1  UNL11      -0.0608
     24 C           6.7799    2.1566    2.1643 C.ar    1  UNL11      -0.0611
     25 C           5.5777    1.5001    2.0789 C.ar    1  UNL11      -0.0517
     26 C           5.0553    1.1654    0.8469 C.ar    1  UNL11       0.0205
     27 H          -2.2244    0.0952    0.9621 H       1  UNL11       0.1492
     28 H          -0.9732   -1.8963    2.0748 H       1  UNL11       0.0465
     29 H          -1.3009   -0.5776    3.2116 H       1  UNL11       0.0465
     30 H           1.0424   -1.3625    3.4029 H       1  UNL11       0.0325
     31 H           1.3236   -0.9731    1.6244 H       1  UNL11       0.0325
     32 H           0.3059    1.4496    1.1478 H       1  UNL11       0.0572
     33 H           0.4966    3.7255    1.9085 H       1  UNL11       0.0307
     34 H           2.2182    3.1853    2.3254 H       1  UNL11       0.0307
     35 H          -0.2705    3.6567    4.0431 H       1  UNL11       0.0268
     36 H           1.4457    4.1080    4.3746 H       1  UNL11       0.0268
     37 H          -0.0498    1.6957    5.1663 H       1  UNL11       0.0268
     38 H           1.4523    2.3731    5.8327 H       1  UNL11       0.0268
     39 H           1.7703    0.1506    4.9078 H       1  UNL11       0.0310
     40 H           2.7756    1.3597    4.0352 H       1  UNL11       0.0310
     41 H           1.0599   -0.4666    2.2732 H       1  UNL11       0.1495
     42 H           3.2928    0.8654    2.8431 H       1  UNL11       0.0529
     43 H           3.4805   -0.8398    2.3387 H       1  UNL11       0.0529
     44 H           3.6086    0.2428   -2.4599 H       1  UNL11       0.4829
     45 H           7.4735    2.3966   -1.1468 H       1  UNL11       0.0627
     46 H           8.4249    3.0052    1.0753 H       1  UNL11       0.0618
     47 H           7.1596    2.4038    3.1543 H       1  UNL11       0.0618
     48 H           4.9928    1.2184    2.9515 H       1  UNL11       0.0624
@<TRIPOS>BOND
     1     1     2    2
     2     2     3   am
     3     2    12    1
     4     3     4    1
     5     3    27    1
     6     4     5    1
     7     4    28    1
     8     4    29    1
     9     5     6    1
    10     5    30    1
    11     5    31    1
    12     6     7    2
    13     7     8    1
    14     7    32    1
    15     8     9    1
    16     8    33    1
    17     8    34    1
    18     9    10    1
    19     9    35    1
    20     9    36    1
    21    10    11    1
    22    10    37    1
    23    10    38    1
    24    11     6    1
    25    11    39    1
    26    11    40    1
    27    12    13    2
    28    12    14   am
    29    14    15    1
    30    14    41    1
    31    15    16    1
    32    15    42    1
    33    15    43    1
    34    16    17    2
    35    17    18    1
    36    18    19   am
    37    18    44    1
    38    19    20    2
    39    19    21    1
    40    21    22   ar
    41    22    23   ar
    42    22    45    1
    43    23    24   ar
    44    23    46    1
    45    24    25   ar
    46    24    47    1
    47    25    26   ar
    48    25    48    1
    49    26    16    1
    50    26    21   ar
@<TRIPOS>MOLECULE
*****
 48 50 0 0 0
SMALL
GASTEIGER

@<TRIPOS>ATOM
      1 O          -0.8449    1.6322   -0.3903 O.2     1  UNL11      -0.2652
      2 C          -0.3393    0.9047    0.5013 C.2     1  UNL11       0.2990
      3 N          -1.2000    0.0508    1.2415 N.am    1  UNL11      -0.3073
      4 C          -0.7508   -0.8197    2.2950 C.3     1  UNL11       0.0157
      5 C          -1.4092   -0.5069    3.6207 C.3     1  UNL11      -0.0161
      6 C          -1.0963    0.8966    3.9846 C.2     1  UNL11      -0.0720
      7 C          -0.3587    1.6305    3.1937 C.2     1  UNL11      -0.0847
      8 C          -0.0697    3.0331    3.5978 C.3     1  UNL11      -0.0345
      9 C          -1.2820    3.7489    4.1286 C.3     1  UNL11      -0.0493
     10 C          -2.2103    2.8528    4.9017 C.3     1  UNL11      -0.0491
     11 C          -1.5939    1.5278    5.2400 C.3     1  UNL11      -0.0317
     12 C           1.0992    0.9629    0.7415 C.2     1  UNL11       0.2993
     13 O           1.8404    1.7275    0.0747 O.2     1  UNL11      -0.2652
     14 N           1.6989    0.1577    1.7342 N.am    1  UNL11      -0.3018
     15 C           0.9649   -0.7761    2.5642 C.3     1  UNL11       0.0606
     16 C           0.3380   -1.7751    1.6801 C.2     1  UNL11       0.1319
     17 N           0.4815   -1.7391    0.3602 N.2     1  UNL11      -0.0060
     18 N          -0.0852   -2.6421   -0.4222 N.am    1  UNL11      -0.0355
     19 C          -0.8347   -3.6464    0.0383 C.2     1  UNL11       0.4383
     20 O          -1.3808   -4.5149   -0.7023 O.2     1  UNL11      -0.2116
     21 C          -1.0178   -3.7322    1.4095 C.ar    1  UNL11       0.1005
     22 C          -1.7793   -4.7408    1.9736 C.ar    1  UNL11      -0.0441
     23 C          -1.9459   -4.8027    3.3478 C.ar    1  UNL11      -0.0608
     24 C          -1.3524   -3.8588    4.1536 C.ar    1  UNL11      -0.0611
     25 C          -0.5972   -2.8587    3.5943 C.ar    1  UNL11      -0.0517
     26 C          -0.4310   -2.7964    2.2263 C.ar    1  UNL11       0.0205
     27 H          -2.2244    0.0952    0.9621 H       1  UNL11       0.1492
     28 H           0.3557   -0.7447    2.4596 H       1  UNL11       0.0465
     29 H          -0.9443   -1.8579    2.0017 H       1  UNL11       0.0465
     30 H          -2.5305   -0.5510    3.5189 H       1  UNL11       0.0325
     31 H          -1.0513   -1.1593    4.4330 H       1  UNL11       0.0325
     32 H           0.0243    1.1974    2.2614 H       1  UNL11       0.0572
     33 H           0.2395    3.5634    2.6494 H       1  UNL11       0.0307
     34 H           0.7691    2.9928    4.3298 H       1  UNL11       0.0307
     35 H          -1.8407    4.2060    3.2889 H       1  UNL11       0.0268
     36 H          -0.9545    4.5529    4.8229 H       1  UNL11       0.0268
     37 H          -3.1444    2.6503    4.3067 H       1  UNL11       0.0268
     38 H          -2.5687    3.3328    5.8436 H       1  UNL11       0.0268
     39 H          -2.3469    0.9161    5.7639 H       1  UNL11       0.0310
     40 H          -0.7406    1.7031    5.9498 H       1  UNL11       0.0310
     41 H           2.7300    0.2615    1.8548 H       1  UNL11       0.1495
     42 H           1.6604   -1.2008    3.2911 H       1  UNL11       0.0529
     43 H           0.1388   -0.2780    3.1163 H       1  UNL11       0.0529
     44 H           0.0437   -2.5912   -1.4631 H       1  UNL11       0.4829
     45 H          -2.2436   -5.4830    1.3128 H       1  UNL11       0.0627
     46 H          -2.5494   -5.6032    3.7838 H       1  UNL11       0.0618
     47 H          -1.4604   -3.8746    5.2368 H       1  UNL11       0.0618
     48 H          -0.1058   -2.0871    4.1827 H       1  UNL11       0.0624
@<TRIPOS>BOND
     1     1     2    2
     2     2     3   am
     3     2    12    1
     4     3     4    1
     5     3    27    1
     6     4     5    1
     7     4    28    1
     8     4    29    1
     9     5     6    1
    10     5    30    1
    11     5    31    1
    12     6     7    2
    13     7     8    1
    14     7    32    1
    15     8     9    1
    16     8    33    1
    17     8    34    1
    18     9    10    1
    19     9    35    1
    20     9    36    1
    21    10    11    1
    22    10    37    1
    23    10    38    1
    24    11     6    1
    25    11    39    1
    26    11    40    1
    27    12    13    2
    28    12    14   am
    29    14    15    1
    30    14    41    1
    31    15    16    1
    32    15    42    1
    33    15    43    1
    34    16    17    2
    35    17    18    1
    36    18    19   am
    37    18    44    1
    38    19    20    2
    39    19    21    1
    40    21    22   ar
    41    22    23   ar
    42    22    45    1
    43    23    24   ar
    44    23    46    1
    45    24    25   ar
    46    24    47    1
    47    25    26   ar
    48    25    48    1
    49    26    16    1
    50    26    21   ar
@<TRIPOS>MOLECULE
*****
 48 50 0 0 0
SMALL
GASTEIGER

@<TRIPOS>ATOM
      1 O          -0.8449    1.6322   -0.3903 O.2     1  UNL11      -0.2652
      2 C          -0.3393    0.9047    0.5013 C.2     1  UNL11       0.2990
      3 N          -1.2000    0.0508    1.2415 N.am    1  UNL11      -0.3073
      4 C          -0.7508   -0.8197    2.2950 C.3     1  UNL11       0.0157
      5 C          -0.7893   -0.1502    3.6512 C.3     1  UNL11      -0.0161
      6 C          -0.2941   -1.1108    4.6669 C.2     1  UNL11      -0.0720
      7 C           0.5829   -2.0216    4.3360 C.2     1  UNL11      -0.0847
      8 C           1.0523   -2.9648    5.3867 C.3     1  UNL11      -0.0345
      9 C           1.3564   -2.2802    6.6916 C.3     1  UNL11      -0.0493
     10 C           0.4393   -1.1246    6.9845 C.3     1  UNL11      -0.0491
     11 C          -0.7592   -1.0888    6.0830 C.3     1  UNL11      -0.0317
     12 C           1.0992    0.9629    0.7415 C.2     1  UNL11       0.2993
     13 O           1.8929    0.2052    0.1294 O.2     1  UNL11      -0.2652
     14 N           1.6397    1.8765    1.6725 N.am    1  UNL11      -0.3018
     15 C           0.8386    2.7960    2.4550 C.3     1  UNL11       0.0606
     16 C           1.2691    4.1671    2.1270 C.2     1  UNL11       0.1319
     17 N           0.7095    4.8675    1.1470 N.2     1  UNL11      -0.0060
     18 N           1.1040    6.0974    0.8632 N.am    1  UNL11      -0.0355
     19 C           2.0783    6.7271    1.5239 C.2     1  UNL11       0.4383
     20 O           2.4625    7.9034    1.2598 O.2     1  UNL11      -0.2116
     21 C           2.6975    6.0421    2.5576 C.ar    1  UNL11       0.1005
     22 C           3.7168    6.6181    3.2957 C.ar    1  UNL11      -0.0441
     23 C           4.3185    5.9103    4.3238 C.ar    1  UNL11      -0.0608
     24 C           3.9013    4.6314    4.6116 C.ar    1  UNL11      -0.0611
     25 C           2.8906    4.0602    3.8798 C.ar    1  UNL11      -0.0517
     26 C           2.2912    4.7642    2.8560 C.ar    1  UNL11       0.0205
     27 H          -2.2244    0.0952    0.9621 H       1  UNL11       0.1492
     28 H           0.3045   -1.1633    2.1356 H       1  UNL11       0.0465
     29 H          -1.3684   -1.7251    2.2923 H       1  UNL11       0.0465
     30 H          -0.0704    0.7171    3.6781 H       1  UNL11       0.0325
     31 H          -1.8065    0.1592    3.9394 H       1  UNL11       0.0325
     32 H           0.9466   -2.0663    3.3020 H       1  UNL11       0.0572
     33 H           2.0256   -3.3884    4.9999 H       1  UNL11       0.0307
     34 H           0.2756   -3.7578    5.4802 H       1  UNL11       0.0307
     35 H           2.4021   -1.9159    6.6850 H       1  UNL11       0.0268
     36 H           1.2346   -3.0094    7.5217 H       1  UNL11       0.0268
     37 H           0.9869   -0.1489    6.8597 H       1  UNL11       0.0268
     38 H           0.0908   -1.1243    8.0450 H       1  UNL11       0.0268
     39 H          -1.3549   -0.1944    6.3299 H       1  UNL11       0.0310
     40 H          -1.3924   -1.9921    6.2967 H       1  UNL11       0.0310
     41 H           2.6771    1.8668    1.7828 H       1  UNL11       0.1495
     42 H          -0.2129    2.5969    2.2380 H       1  UNL11       0.0529
     43 H           1.0043    2.6638    3.5462 H       1  UNL11       0.0529
     44 H           0.6451    6.6299    0.0832 H       1  UNL11       0.4829
     45 H           4.0339    7.6388    3.0494 H       1  UNL11       0.0627
     46 H           5.1228    6.3740    4.9010 H       1  UNL11       0.0618
     47 H           4.3497    4.0445    5.4114 H       1  UNL11       0.0618
     48 H           2.5213    3.0538    4.0635 H       1  UNL11       0.0624
@<TRIPOS>BOND
     1     1     2    2
     2     2     3   am
     3     2    12    1
     4     3     4    1
     5     3    27    1
     6     4     5    1
     7     4    28    1
     8     4    29    1
     9     5     6    1
    10     5    30    1
    11     5    31    1
    12     6     7    2
    13     7     8    1
    14     7    32    1
    15     8     9    1
    16     8    33    1
    17     8    34    1
    18     9    10    1
    19     9    35    1
    20     9    36    1
    21    10    11    1
    22    10    37    1
    23    10    38    1
    24    11     6    1
    25    11    39    1
    26    11    40    1
    27    12    13    2
    28    12    14   am
    29    14    15    1
    30    14    41    1
    31    15    16    1
    32    15    42    1
    33    15    43    1
    34    16    17    2
    35    17    18    1
    36    18    19   am
    37    18    44    1
    38    19    20    2
    39    19    21    1
    40    21    22   ar
    41    22    23   ar
    42    22    45    1
    43    23    24   ar
    44    23    46    1
    45    24    25   ar
    46    24    47    1
    47    25    26   ar
    48    25    48    1
    49    26    16    1
    50    26    21   ar
@<TRIPOS>MOLECULE
*****
 48 50 0 0 0
SMALL
GASTEIGER

@<TRIPOS>ATOM
      1 O          -0.8449    1.6322   -0.3903 O.2     1  UNL11      -0.2652
      2 C          -0.3393    0.9047    0.5013 C.2     1  UNL11       0.2990
      3 N          -1.2000    0.0508    1.2415 N.am    1  UNL11      -0.3073
      4 C          -2.6208   -0.0299    1.0316 C.3     1  UNL11       0.0157
      5 C          -3.0946    0.8972   -0.0661 C.3     1  UNL11      -0.0161
      6 C          -2.7370    2.2885    0.3029 C.2     1  UNL11      -0.0720
      7 C          -1.4847    2.6199    0.4766 C.2     1  UNL11      -0.0847
      8 C          -1.1713    4.0267    0.8462 C.3     1  UNL11      -0.0345
      9 C          -1.9550    5.0293    0.0434 C.3     1  UNL11      -0.0493
     10 C          -3.3459    4.5654   -0.2923 C.3     1  UNL11      -0.0491
     11 C          -3.7613    3.3551    0.4906 C.3     1  UNL11      -0.0317
     12 C           1.0992    0.9629    0.7415 C.2     1  UNL11       0.2993
     13 O           1.5880    1.7635    1.5775 O.2     1  UNL11      -0.2652
     14 N           1.9839    0.1172    0.0375 N.am    1  UNL11      -0.3018
     15 C           1.5563   -0.8409   -0.9619 C.3     1  UNL11       0.0606
     16 C           1.5709   -0.1677   -2.2732 C.2     1  UNL11       0.1319
     17 N           2.6439   -0.1695   -3.0560 N.2     1  UNL11      -0.0060
     18 N           2.6440    0.4373   -4.2310 N.am    1  UNL11      -0.0355
     19 C           1.5874    1.0902   -4.7206 C.2     1  UNL11       0.4383
     20 O           1.5781    1.6736   -5.8433 O.2     1  UNL11      -0.2116
     21 C           0.4395    1.1239   -3.9445 C.ar    1  UNL11       0.1005
     22 C          -0.7023    1.7777   -4.3738 C.ar    1  UNL11      -0.0441
     23 C          -1.8361    1.7957   -3.5775 C.ar    1  UNL11      -0.0608
     24 C          -1.8267    1.1615   -2.3567 C.ar    1  UNL11      -0.0611
     25 C          -0.6945    0.5131   -1.9310 C.ar    1  UNL11      -0.0517
     26 C           0.4347    0.4949   -2.7232 C.ar    1  UNL11       0.0205
     27 H          -0.7173   -0.5414    1.9803 H       1  UNL11       0.1492
     28 H          -3.1984    0.2415    1.9535 H       1  UNL11       0.0465
     29 H          -2.8855   -1.0686    0.8026 H       1  UNL11       0.0465
     30 H          -2.5383    0.6846   -1.0227 H       1  UNL11       0.0325
     31 H          -4.1852    0.8515   -0.2144 H       1  UNL11       0.0325
     32 H          -0.7049    1.8594    0.3466 H       1  UNL11       0.0572
     33 H          -0.0817    4.1723    0.5855 H       1  UNL11       0.0307
     34 H          -1.3397    4.1184    1.9436 H       1  UNL11       0.0307
     35 H          -1.4154    5.2558   -0.8966 H       1  UNL11       0.0268
     36 H          -2.0591    5.9659    0.6332 H       1  UNL11       0.0268
     37 H          -3.4181    4.3038   -1.3849 H       1  UNL11       0.0268
     38 H          -4.1046    5.3697   -0.1391 H       1  UNL11       0.0268
     39 H          -4.7680    3.0529    0.1577 H       1  UNL11       0.0310
     40 H          -3.8300    3.6393    1.5755 H       1  UNL11       0.0310
     41 H           2.9968    0.2091    0.2702 H       1  UNL11       0.1495
     42 H           2.2158   -1.7092   -0.9014 H       1  UNL11       0.0529
     43 H           0.5116   -1.1793   -0.7905 H       1  UNL11       0.0529
     44 H           3.5056    0.4212   -4.8310 H       1  UNL11       0.4829
     45 H          -0.6881    2.2768   -5.3504 H       1  UNL11       0.0627
     46 H          -2.7330    2.3148   -3.9254 H       1  UNL11       0.0618
     47 H          -2.6977    1.1539   -1.7036 H       1  UNL11       0.0618
     48 H          -0.6310   -0.0040   -0.9763 H       1  UNL11       0.0624
@<TRIPOS>BOND
     1     1     2    2
     2     2     3   am
     3     2    12    1
     4     3     4    1
     5     3    27    1
     6     4     5    1
     7     4    28    1
     8     4    29    1
     9     5     6    1
    10     5    30    1
    11     5    31    1
    12     6     7    2
    13     7     8    1
    14     7    32    1
    15     8     9    1
    16     8    33    1
    17     8    34    1
    18     9    10    1
    19     9    35    1
    20     9    36    1
    21    10    11    1
    22    10    37    1
    23    10    38    1
    24    11     6    1
    25    11    39    1
    26    11    40    1
    27    12    13    2
    28    12    14   am
    29    14    15    1
    30    14    41    1
    31    15    16    1
    32    15    42    1
    33    15    43    1
    34    16    17    2
    35    17    18    1
    36    18    19   am
    37    18    44    1
    38    19    20    2
    39    19    21    1
    40    21    22   ar
    41    22    23   ar
    42    22    45    1
    43    23    24   ar
    44    23    46    1
    45    24    25   ar
    46    24    47    1
    47    25    26   ar
    48    25    48    1
    49    26    16    1
    50    26    21   ar
@<TRIPOS>MOLECULE
*****
 48 50 0 0 0
SMALL
GASTEIGER

@<TRIPOS>ATOM
      1 O          -0.8449    1.6322   -0.3903 O.2     1  UNL11      -0.2652
      2 C          -0.3393    0.9047    0.5013 C.2     1  UNL11       0.2990
      3 N          -1.2000    0.0508    1.2415 N.am    1  UNL11      -0.3073
      4 C          -0.7508   -0.8197    2.2950 C.3     1  UNL11       0.0157
      5 C          -0.7893   -0.1502    3.6512 C.3     1  UNL11      -0.0161
      6 C           0.0801    1.0508    3.6104 C.2     1  UNL11      -0.0720
      7 C          -0.1791    2.0202    2.7730 C.2     1  UNL11      -0.0847
      8 C           0.7192    3.2064    2.7660 C.3     1  UNL11      -0.0345
      9 C           1.0686    3.6819    4.1501 C.3     1  UNL11      -0.0493
     10 C           1.2035    2.5633    5.1465 C.3     1  UNL11      -0.0491
     11 C           1.2655    1.2111    4.4999 C.3     1  UNL11      -0.0317
     12 C           1.0992    0.9629    0.7415 C.2     1  UNL11       0.2993
     13 O           1.6436    0.2407    1.6137 O.2     1  UNL11      -0.2652
     14 N           1.9211    1.8365   -0.0033 N.am    1  UNL11      -0.3018
     15 C           1.4228    2.7320   -1.0276 C.3     1  UNL11       0.0606
     16 C           1.0865    4.0155   -0.3856 C.2     1  UNL11       0.1319
     17 N           1.9698    5.0009   -0.2716 N.2     1  UNL11      -0.0060
     18 N           1.6554    6.1484    0.3057 N.am    1  UNL11      -0.0355
     19 C           0.4483    6.4090    0.8129 C.2     1  UNL11       0.4383
     20 O           0.1382    7.5035    1.3668 O.2     1  UNL11      -0.2116
     21 C          -0.5131    5.4148    0.7210 C.ar    1  UNL11       0.1005
     22 C          -1.7909    5.5990    1.2199 C.ar    1  UNL11      -0.0441
     23 C          -2.7325    4.5880    1.1147 C.ar    1  UNL11      -0.0608
     24 C          -2.3962    3.3978    0.5124 C.ar    1  UNL11      -0.0611
     25 C          -1.1292    3.2151    0.0177 C.ar    1  UNL11      -0.0517
     26 C          -0.1912    4.2211    0.1222 C.ar    1  UNL11       0.0205
     27 H          -2.2244    0.0952    0.9621 H       1  UNL11       0.1492
     28 H           0.3045   -1.1633    2.1356 H       1  UNL11       0.0465
     29 H          -1.3684   -1.7251    2.2923 H       1  UNL11       0.0465
     30 H          -1.8266    0.2335    3.8670 H       1  UNL11       0.0325
     31 H          -0.4265   -0.8086    4.4563 H       1  UNL11       0.0325
     32 H          -1.0439    1.9348    2.1036 H       1  UNL11       0.0572
     33 H           0.1267    4.0316    2.2717 H       1  UNL11       0.0307
     34 H           1.6128    2.9322    2.1599 H       1  UNL11       0.0307
     35 H           0.2943    4.3888    4.5064 H       1  UNL11       0.0268
     36 H           2.0478    4.2072    4.1177 H       1  UNL11       0.0268
     37 H           0.3273    2.5613    5.8536 H       1  UNL11       0.0268
     38 H           2.0993    2.6899    5.8003 H       1  UNL11       0.0268
     39 H           1.3189    0.4472    5.2931 H       1  UNL11       0.0310
     40 H           2.2124    1.1475    3.8984 H       1  UNL11       0.0310
     41 H           2.9406    1.8150    0.2177 H       1  UNL11       0.1495
     42 H           2.1840    2.8113   -1.8066 H       1  UNL11       0.0529
     43 H           0.4852    2.3525   -1.4886 H       1  UNL11       0.0529
     44 H           2.3723    6.9117    0.3833 H       1  UNL11       0.4829
     45 H          -2.0379    6.5557    1.6962 H       1  UNL11       0.0627
     46 H          -3.7391    4.7432    1.5118 H       1  UNL11       0.0618
     47 H          -3.1086    2.5807    0.4113 H       1  UNL11       0.0618
     48 H          -0.8090    2.2958   -0.4674 H       1  UNL11       0.0624
@<TRIPOS>BOND
     1     1     2    2
     2     2     3   am
     3     2    12    1
     4     3     4    1
     5     3    27    1
     6     4     5    1
     7     4    28    1
     8     4    29    1
     9     5     6    1
    10     5    30    1
    11     5    31    1
    12     6     7    2
    13     7     8    1
    14     7    32    1
    15     8     9    1
    16     8    33    1
    17     8    34    1
    18     9    10    1
    19     9    35    1
    20     9    36    1
    21    10    11    1
    22    10    37    1
    23    10    38    1
    24    11     6    1
    25    11    39    1
    26    11    40    1
    27    12    13    2
    28    12    14   am
    29    14    15    1
    30    14    41    1
    31    15    16    1
    32    15    42    1
    33    15    43    1
    34    16    17    2
    35    17    18    1
    36    18    19   am
    37    18    44    1
    38    19    20    2
    39    19    21    1
    40    21    22   ar
    41    22    23   ar
    42    22    45    1
    43    23    24   ar
    44    23    46    1
    45    24    25   ar
    46    24    47    1
    47    25    26   ar
    48    25    48    1
    49    26    16    1
    50    26    21   ar
@<TRIPOS>MOLECULE
*****
 48 50 0 0 0
SMALL
GASTEIGER

@<TRIPOS>ATOM
      1 O          -0.8449    1.6322   -0.3903 O.2     1  UNL11      -0.2652
      2 C          -0.3393    0.9047    0.5013 C.2     1  UNL11       0.2990
      3 N          -1.2000    0.0508    1.2415 N.am    1  UNL11      -0.3073
      4 C          -0.7508   -0.8197    2.2950 C.3     1  UNL11       0.0157
      5 C          -0.7893   -0.1502    3.6512 C.3     1  UNL11      -0.0161
      6 C          -2.1900    0.2372    3.9477 C.2     1  UNL11      -0.0720
      7 C          -2.8280    1.0526    3.1500 C.2     1  UNL11      -0.0847
      8 C          -4.2317    1.4145    3.4856 C.3     1  UNL11      -0.0345
      9 C          -5.0518    0.2300    3.9194 C.3     1  UNL11      -0.0493
     10 C          -4.2630   -0.7853    4.7000 C.3     1  UNL11      -0.0491
     11 C          -2.9250   -0.2701    5.1412 C.3     1  UNL11      -0.0317
     12 C           1.0992    0.9629    0.7415 C.2     1  UNL11       0.2993
     13 O           1.8404    1.7275    0.0747 O.2     1  UNL11      -0.2652
     14 N           1.6989    0.1577    1.7342 N.am    1  UNL11      -0.3018
     15 C           3.1183    0.1632    2.0251 C.3     1  UNL11       0.0606
     16 C           3.8364   -0.2168    0.7952 C.2     1  UNL11       0.1319
     17 N           3.2996   -1.0201   -0.1162 N.2     1  UNL11      -0.0060
     18 N           3.9538   -1.3529   -1.2163 N.am    1  UNL11      -0.0355
     19 C           5.1843   -0.9188   -1.4989 C.2     1  UNL11       0.4383
     20 O           5.8180   -1.2316   -2.5484 O.2     1  UNL11      -0.2116
     21 C           5.7927   -0.0768   -0.5812 C.ar    1  UNL11       0.1005
     22 C           7.0667    0.4207   -0.7932 C.ar    1  UNL11      -0.0441
     23 C           7.6512    1.2607    0.1410 C.ar    1  UNL11      -0.0608
     24 C           6.9628    1.6013    1.2824 C.ar    1  UNL11      -0.0611
     25 C           5.6995    1.1081    1.4925 C.ar    1  UNL11      -0.0517
     26 C           5.1171    0.2717    0.5630 C.ar    1  UNL11       0.0205
     27 H          -2.2244    0.0952    0.9621 H       1  UNL11       0.1492
     28 H           0.3045   -1.1633    2.1356 H       1  UNL11       0.0465
     29 H          -1.3684   -1.7251    2.2923 H       1  UNL11       0.0465
     30 H          -0.5006   -0.8839    4.4562 H       1  UNL11       0.0325
     31 H          -0.1670    0.7580    3.6903 H       1  UNL11       0.0325
     32 H          -2.3167    1.4451    2.2623 H       1  UNL11       0.0572
     33 H          -4.6839    1.7962    2.5232 H       1  UNL11       0.0307
     34 H          -4.1836    2.2180    4.2557 H       1  UNL11       0.0307
     35 H          -5.4914   -0.2629    3.0306 H       1  UNL11       0.0268
     36 H          -5.8742    0.5797    4.5805 H       1  UNL11       0.0268
     37 H          -4.0834   -1.7052    4.0762 H       1  UNL11       0.0268
     38 H          -4.8200   -1.1506    5.5957 H       1  UNL11       0.0268
     39 H          -2.3938   -1.0820    5.6648 H       1  UNL11       0.0310
     40 H          -3.0895    0.5627    5.8774 H       1  UNL11       0.0310
     41 H           1.0599   -0.4666    2.2732 H       1  UNL11       0.1495
     42 H           3.3815    1.1527    2.4050 H       1  UNL11       0.0529
     43 H           3.3859   -0.5923    2.7952 H       1  UNL11       0.0529
     44 H           3.5070   -1.9898   -1.9214 H       1  UNL11       0.4829
     45 H           7.5978    0.1364   -1.7099 H       1  UNL11       0.0627
     46 H           8.6579    1.6484   -0.0355 H       1  UNL11       0.0618
     47 H           7.3888    2.2583    2.0387 H       1  UNL11       0.0618
     48 H           5.1103    1.3440    2.3758 H       1  UNL11       0.0624
@<TRIPOS>BOND
     1     1     2    2
     2     2     3   am
     3     2    12    1
     4     3     4    1
     5     3    27    1
     6     4     5    1
     7     4    28    1
     8     4    29    1
     9     5     6    1
    10     5    30    1
    11     5    31    1
    12     6     7    2
    13     7     8    1
    14     7    32    1
    15     8     9    1
    16     8    33    1
    17     8    34    1
    18     9    10    1
    19     9    35    1
    20     9    36    1
    21    10    11    1
    22    10    37    1
    23    10    38    1
    24    11     6    1
    25    11    39    1
    26    11    40    1
    27    12    13    2
    28    12    14   am
    29    14    15    1
    30    14    41    1
    31    15    16    1
    32    15    42    1
    33    15    43    1
    34    16    17    2
    35    17    18    1
    36    18    19   am
    37    18    44    1
    38    19    20    2
    39    19    21    1
    40    21    22   ar
    41    22    23   ar
    42    22    45    1
    43    23    24   ar
    44    23    46    1
    45    24    25   ar
    46    24    47    1
    47    25    26   ar
    48    25    48    1
    49    26    16    1
    50    26    21   ar
@<TRIPOS>MOLECULE
*****
 48 50 0 0 0
SMALL
GASTEIGER

@<TRIPOS>ATOM
      1 O          -0.8449    1.6322   -0.3903 O.2     1  UNL11      -0.2652
      2 C          -0.3393    0.9047    0.5013 C.2     1  UNL11       0.2990
      3 N          -1.2000    0.0508    1.2415 N.am    1  UNL11      -0.3073
      4 C          -0.7508   -0.8197    2.2950 C.3     1  UNL11       0.0157
      5 C          -1.0449   -2.2750    2.0045 C.3     1  UNL11      -0.0161
      6 C          -0.5665   -3.0912    3.1468 C.2     1  UNL11      -0.0720
      7 C          -1.1709   -4.2088    3.4532 C.2     1  UNL11      -0.0847
      8 C          -0.6575   -4.9960    4.6068 C.3     1  UNL11      -0.0345
      9 C           0.8436   -5.0981    4.6216 C.3     1  UNL11      -0.0493
     10 C           1.5286   -3.8607    4.1099 C.3     1  UNL11      -0.0491
     11 C           0.5994   -2.6897    3.9844 C.3     1  UNL11      -0.0317
     12 C           1.0992    0.9629    0.7415 C.2     1  UNL11       0.2993
     13 O           1.5594    1.2943    1.8627 O.2     1  UNL11      -0.2652
     14 N           2.0162    0.6469   -0.2845 N.am    1  UNL11      -0.3018
     15 C           1.6224    0.2634   -1.6252 C.3     1  UNL11       0.0606
     16 C           1.5319    1.4880   -2.4406 C.2     1  UNL11       0.1319
     17 N           2.5787    2.2798   -2.6443 N.2     1  UNL11      -0.0060
     18 N           2.4849    3.3753   -3.3790 N.am    1  UNL11      -0.0355
     19 C           1.3532    3.7711   -3.9666 C.2     1  UNL11       0.4383
     20 O           1.2538    4.8173   -4.6711 O.2     1  UNL11      -0.2116
     21 C           0.2284    2.9812   -3.7870 C.ar    1  UNL11       0.1005
     22 C          -0.9864    3.3157   -4.3596 C.ar    1  UNL11      -0.0441
     23 C          -2.0950    2.5079   -4.1637 C.ar    1  UNL11      -0.0608
     24 C          -1.9876    1.3702   -3.3978 C.ar    1  UNL11      -0.0611
     25 C          -0.7830    1.0384   -2.8301 C.ar    1  UNL11      -0.0517
     26 C           0.3211    1.8422   -3.0247 C.ar    1  UNL11       0.0205
     27 H          -2.2244    0.0952    0.9621 H       1  UNL11       0.1492
     28 H          -1.2408   -0.5817    3.2750 H       1  UNL11       0.0465
     29 H           0.3235   -0.6644    2.4473 H       1  UNL11       0.0465
     30 H          -2.1577   -2.4453    1.9552 H       1  UNL11       0.0325
     31 H          -0.5407   -2.6327    1.0928 H       1  UNL11       0.0325
     32 H          -2.0328   -4.5341    2.8576 H       1  UNL11       0.0572
     33 H          -1.0595   -6.0418    4.4620 H       1  UNL11       0.0307
     34 H          -1.0725   -4.5279    5.5285 H       1  UNL11       0.0307
     35 H           1.1629   -5.9643    4.0100 H       1  UNL11       0.0268
     36 H           1.1873   -5.2500    5.6678 H       1  UNL11       0.0268
     37 H           1.9731   -4.0514    3.0932 H       1  UNL11       0.0268
     38 H           2.3938   -3.5652    4.7503 H       1  UNL11       0.0268
     39 H           1.1632   -1.8404    3.5644 H       1  UNL11       0.0310
     40 H           0.2547   -2.3972    5.0131 H       1  UNL11       0.0310
     41 H           3.0278    0.7012   -0.0350 H       1  UNL11       0.1495
     42 H           2.3481   -0.4638   -1.9954 H       1  UNL11       0.0529
     43 H           0.6144   -0.2046   -1.6425 H       1  UNL11       0.0529
     44 H           3.3277    3.9845   -3.5247 H       1  UNL11       0.4829
     45 H          -1.0499    4.2272   -4.9665 H       1  UNL11       0.0627
     46 H          -3.0501    2.7807   -4.6201 H       1  UNL11       0.0618
     47 H          -2.8360    0.7111   -3.2215 H       1  UNL11       0.0618
     48 H          -0.6410    0.1519   -2.2162 H       1  UNL11       0.0624
@<TRIPOS>BOND
     1     1     2    2
     2     2     3   am
     3     2    12    1
     4     3     4    1
     5     3    27    1
     6     4     5    1
     7     4    28    1
     8     4    29    1
     9     5     6    1
    10     5    30    1
    11     5    31    1
    12     6     7    2
    13     7     8    1
    14     7    32    1
    15     8     9    1
    16     8    33    1
    17     8    34    1
    18     9    10    1
    19     9    35    1
    20     9    36    1
    21    10    11    1
    22    10    37    1
    23    10    38    1
    24    11     6    1
    25    11    39    1
    26    11    40    1
    27    12    13    2
    28    12    14   am
    29    14    15    1
    30    14    41    1
    31    15    16    1
    32    15    42    1
    33    15    43    1
    34    16    17    2
    35    17    18    1
    36    18    19   am
    37    18    44    1
    38    19    20    2
    39    19    21    1
    40    21    22   ar
    41    22    23   ar
    42    22    45    1
    43    23    24   ar
    44    23    46    1
    45    24    25   ar
    46    24    47    1
    47    25    26   ar
    48    25    48    1
    49    26    16    1
    50    26    21   ar
@<TRIPOS>MOLECULE
*****
 48 50 0 0 0
SMALL
GASTEIGER

@<TRIPOS>ATOM
      1 O          -0.8449    1.6322   -0.3903 O.2     1  UNL11      -0.2652
      2 C          -0.3393    0.9047    0.5013 C.2     1  UNL11       0.2990
      3 N          -1.2000    0.0508    1.2415 N.am    1  UNL11      -0.3073
      4 C          -0.7508   -0.8197    2.2950 C.3     1  UNL11       0.0157
      5 C          -0.7893   -0.1502    3.6512 C.3     1  UNL11      -0.0161
      6 C          -0.2941   -1.1108    4.6669 C.2     1  UNL11      -0.0720
      7 C           0.5829   -2.0216    4.3360 C.2     1  UNL11      -0.0847
      8 C           1.0523   -2.9648    5.3867 C.3     1  UNL11      -0.0345
      9 C           1.3564   -2.2802    6.6916 C.3     1  UNL11      -0.0493
     10 C           0.4393   -1.1246    6.9845 C.3     1  UNL11      -0.0491
     11 C          -0.7592   -1.0888    6.0830 C.3     1  UNL11      -0.0317
     12 C           1.0992    0.9629    0.7415 C.2     1  UNL11       0.2993
     13 O           1.6436    0.2407    1.6137 O.2     1  UNL11      -0.2652
     14 N           1.9211    1.8365   -0.0033 N.am    1  UNL11      -0.3018
     15 C           1.4228    2.7320   -1.0276 C.3     1  UNL11       0.0606
     16 C          -0.0368    2.5484   -1.1216 C.2     1  UNL11       0.1319
     17 N          -0.5856    1.6634   -1.9459 N.2     1  UNL11      -0.0060
     18 N          -1.8967    1.5074   -2.0202 N.am    1  UNL11      -0.0355
     19 C          -2.7629    2.2117   -1.2880 C.2     1  UNL11       0.4383
     20 O          -4.0185    2.0696   -1.3521 O.2     1  UNL11      -0.2116
     21 C          -2.2442    3.1505   -0.4099 C.ar    1  UNL11       0.1005
     22 C          -3.0687    3.9247    0.3877 C.ar    1  UNL11      -0.0441
     23 C          -2.5233    4.8559    1.2568 C.ar    1  UNL11      -0.0608
     24 C          -1.1582    5.0110    1.3271 C.ar    1  UNL11      -0.0611
     25 C          -0.3405    4.2432    0.5362 C.ar    1  UNL11      -0.0517
     26 C          -0.8828    3.3160   -0.3293 C.ar    1  UNL11       0.0205
     27 H          -2.2244    0.0952    0.9621 H       1  UNL11       0.1492
     28 H           0.3045   -1.1633    2.1356 H       1  UNL11       0.0465
     29 H          -1.3684   -1.7251    2.2923 H       1  UNL11       0.0465
     30 H          -0.0704    0.7171    3.6781 H       1  UNL11       0.0325
     31 H          -1.8065    0.1592    3.9394 H       1  UNL11       0.0325
     32 H           0.9466   -2.0663    3.3020 H       1  UNL11       0.0572
     33 H           2.0256   -3.3884    4.9999 H       1  UNL11       0.0307
     34 H           0.2756   -3.7578    5.4802 H       1  UNL11       0.0307
     35 H           2.4021   -1.9159    6.6850 H       1  UNL11       0.0268
     36 H           1.2346   -3.0094    7.5217 H       1  UNL11       0.0268
     37 H           0.9869   -0.1489    6.8597 H       1  UNL11       0.0268
     38 H           0.0908   -1.1243    8.0450 H       1  UNL11       0.0268
     39 H          -1.3549   -0.1944    6.3299 H       1  UNL11       0.0310
     40 H          -1.3924   -1.9921    6.2967 H       1  UNL11       0.0310
     41 H           2.9406    1.8150    0.2177 H       1  UNL11       0.1495
     42 H           1.7265    3.7476   -0.7654 H       1  UNL11       0.0529
     43 H           1.8385    2.4874   -2.0291 H       1  UNL11       0.0529
     44 H          -2.3056    0.8006   -2.6803 H       1  UNL11       0.4829
     45 H          -4.1542    3.7849    0.3158 H       1  UNL11       0.0627
     46 H          -3.1829    5.4627    1.8826 H       1  UNL11       0.0618
     47 H          -0.6930    5.7318    1.9974 H       1  UNL11       0.0618
     48 H           0.7440    4.3236    0.5506 H       1  UNL11       0.0624
@<TRIPOS>BOND
     1     1     2    2
     2     2     3   am
     3     2    12    1
     4     3     4    1
     5     3    27    1
     6     4     5    1
     7     4    28    1
     8     4    29    1
     9     5     6    1
    10     5    30    1
    11     5    31    1
    12     6     7    2
    13     7     8    1
    14     7    32    1
    15     8     9    1
    16     8    33    1
    17     8    34    1
    18     9    10    1
    19     9    35    1
    20     9    36    1
    21    10    11    1
    22    10    37    1
    23    10    38    1
    24    11     6    1
    25    11    39    1
    26    11    40    1
    27    12    13    2
    28    12    14   am
    29    14    15    1
    30    14    41    1
    31    15    16    1
    32    15    42    1
    33    15    43    1
    34    16    17    2
    35    17    18    1
    36    18    19   am
    37    18    44    1
    38    19    20    2
    39    19    21    1
    40    21    22   ar
    41    22    23   ar
    42    22    45    1
    43    23    24   ar
    44    23    46    1
    45    24    25   ar
    46    24    47    1
    47    25    26   ar
    48    25    48    1
    49    26    16    1
    50    26    21   ar
@<TRIPOS>MOLECULE
*****
 48 50 0 0 0
SMALL
GASTEIGER

@<TRIPOS>ATOM
      1 O          -0.8449    1.6322   -0.3903 O.2     1  UNL11      -0.2652
      2 C          -0.3393    0.9047    0.5013 C.2     1  UNL11       0.2990
      3 N          -1.2000    0.0508    1.2415 N.am    1  UNL11      -0.3073
      4 C          -2.6208   -0.0299    1.0316 C.3     1  UNL11       0.0157
      5 C          -3.2875   -1.0089    1.9728 C.3     1  UNL11      -0.0161
      6 C          -3.0588   -0.5557    3.3664 C.2     1  UNL11      -0.0720
      7 C          -3.5020    0.6097    3.7583 C.2     1  UNL11      -0.0847
      8 C          -3.2502    1.0244    5.1649 C.3     1  UNL11      -0.0345
      9 C          -3.5038   -0.0812    6.1535 C.3     1  UNL11      -0.0493
     10 C          -3.1414   -1.4431    5.6280 C.3     1  UNL11      -0.0491
     11 C          -2.3295   -1.3846    4.3680 C.3     1  UNL11      -0.0317
     12 C           1.0992    0.9629    0.7415 C.2     1  UNL11       0.2993
     13 O           1.8929    0.2052    0.1294 O.2     1  UNL11      -0.2652
     14 N           1.6397    1.8765    1.6725 N.am    1  UNL11      -0.3018
     15 C           0.8386    2.7960    2.4550 C.3     1  UNL11       0.0606
     16 C           1.7510    3.5934    3.2944 C.2     1  UNL11       0.1319
     17 N           2.9122    3.1151    3.7268 N.2     1  UNL11      -0.0060
     18 N           3.7225    3.8411    4.4785 N.am    1  UNL11      -0.0355
     19 C           3.4483    5.0911    4.8592 C.2     1  UNL11       0.4383
     20 O           4.2171    5.7932    5.5780 O.2     1  UNL11      -0.2116
     21 C           2.2484    5.6407    4.4358 C.ar    1  UNL11       0.1005
     22 C           1.8833    6.9297    4.7831 C.ar    1  UNL11      -0.0441
     23 C           0.6776    7.4542    4.3460 C.ar    1  UNL11      -0.0608
     24 C          -0.1589    6.6913    3.5644 C.ar    1  UNL11      -0.0611
     25 C           0.2032    5.4132    3.2198 C.ar    1  UNL11      -0.0517
     26 C           1.4033    4.8903    3.6547 C.ar    1  UNL11       0.0205
     27 H          -0.7173   -0.5414    1.9803 H       1  UNL11       0.1492
     28 H          -2.8743   -0.3607   -0.0092 H       1  UNL11       0.0465
     29 H          -3.0519    0.9715    1.1452 H       1  UNL11       0.0465
     30 H          -4.4047   -0.9902    1.8273 H       1  UNL11       0.0325
     31 H          -2.8843   -2.0293    1.8739 H       1  UNL11       0.0325
     32 H          -4.0430    1.2456    3.0467 H       1  UNL11       0.0572
     33 H          -4.0025    1.8396    5.3791 H       1  UNL11       0.0307
     34 H          -2.2080    1.4158    5.2055 H       1  UNL11       0.0307
     35 H          -4.5723   -0.0813    6.4445 H       1  UNL11       0.0268
     36 H          -2.8840    0.0922    7.0598 H       1  UNL11       0.0268
     37 H          -4.0716   -2.0368    5.4047 H       1  UNL11       0.0268
     38 H          -2.5880   -2.0505    6.3836 H       1  UNL11       0.0268
     39 H          -2.1433   -2.4156    4.0246 H       1  UNL11       0.0310
     40 H          -1.3355   -0.9180    4.6066 H       1  UNL11       0.0310
     41 H           2.6771    1.8668    1.7828 H       1  UNL11       0.1495
     42 H           0.2363    3.3907    1.7651 H       1  UNL11       0.0529
     43 H           0.1545    2.2614    3.1491 H       1  UNL11       0.0529
     44 H           4.6352    3.4395    4.8075 H       1  UNL11       0.4829
     45 H           2.5650    7.5205    5.4071 H       1  UNL11       0.0627
     46 H           0.3981    8.4733    4.6258 H       1  UNL11       0.0618
     47 H          -1.1136    7.0688    3.2021 H       1  UNL11       0.0618
     48 H          -0.4185    4.7663    2.6050 H       1  UNL11       0.0624
@<TRIPOS>BOND
     1     1     2    2
     2     2     3   am
     3     2    12    1
     4     3     4    1
     5     3    27    1
     6     4     5    1
     7     4    28    1
     8     4    29    1
     9     5     6    1
    10     5    30    1
    11     5    31    1
    12     6     7    2
    13     7     8    1
    14     7    32    1
    15     8     9    1
    16     8    33    1
    17     8    34    1
    18     9    10    1
    19     9    35    1
    20     9    36    1
    21    10    11    1
    22    10    37    1
    23    10    38    1
    24    11     6    1
    25    11    39    1
    26    11    40    1
    27    12    13    2
    28    12    14   am
    29    14    15    1
    30    14    41    1
    31    15    16    1
    32    15    42    1
    33    15    43    1
    34    16    17    2
    35    17    18    1
    36    18    19   am
    37    18    44    1
    38    19    20    2
    39    19    21    1
    40    21    22   ar
    41    22    23   ar
    42    22    45    1
    43    23    24   ar
    44    23    46    1
    45    24    25   ar
    46    24    47    1
    47    25    26   ar
    48    25    48    1
    49    26    16    1
    50    26    21   ar
@<TRIPOS>MOLECULE
*****
 48 50 0 0 0
SMALL
GASTEIGER

@<TRIPOS>ATOM
      1 O          -0.8449    1.6322   -0.3903 O.2     1  UNL11      -0.2652
      2 C          -0.3393    0.9047    0.5013 C.2     1  UNL11       0.2990
      3 N          -1.2000    0.0508    1.2415 N.am    1  UNL11      -0.3073
      4 C          -2.6208   -0.0299    1.0316 C.3     1  UNL11       0.0157
      5 C          -3.0946    0.8972   -0.0661 C.3     1  UNL11      -0.0161
      6 C          -4.5656    0.7607   -0.1982 C.2     1  UNL11      -0.0720
      7 C          -5.1478   -0.3732    0.0905 C.2     1  UNL11      -0.0847
      8 C          -6.6256   -0.4657   -0.0562 C.3     1  UNL11      -0.0345
      9 C          -7.3429    0.7377    0.4925 C.3     1  UNL11      -0.0493
     10 C          -6.5835    2.0216    0.2993 C.3     1  UNL11      -0.0491
     11 C          -5.4353    1.8815   -0.6559 C.3     1  UNL11      -0.0317
     12 C           1.0992    0.9629    0.7415 C.2     1  UNL11       0.2993
     13 O           1.5880    1.7635    1.5775 O.2     1  UNL11      -0.2652
     14 N           1.9839    0.1172    0.0375 N.am    1  UNL11      -0.3018
     15 C           1.5563   -0.8409   -0.9619 C.3     1  UNL11       0.0606
     16 C           1.2897   -2.1205   -0.2807 C.2     1  UNL11       0.1319
     17 N           2.2297   -3.0453   -0.1219 N.2     1  UNL11      -0.0060
     18 N           1.9781   -4.1892    0.4921 N.am    1  UNL11      -0.0355
     19 C           0.7823   -4.5057    0.9945 C.2     1  UNL11       0.4383
     20 O           0.5321   -5.5972    1.5835 O.2     1  UNL11      -0.2116
     21 C          -0.2365   -3.5761    0.8567 C.ar    1  UNL11       0.1005
     22 C          -1.5072   -3.8208    1.3475 C.ar    1  UNL11      -0.0441
     23 C          -2.5072   -2.8737    1.1959 C.ar    1  UNL11      -0.0608
     24 C          -2.2359   -1.6867    0.5557 C.ar    1  UNL11      -0.0611
     25 C          -0.9759   -1.4439    0.0690 C.ar    1  UNL11      -0.0517
     26 C           0.0201   -2.3864    0.2196 C.ar    1  UNL11       0.0205
     27 H          -0.7173   -0.5414    1.9803 H       1  UNL11       0.1492
     28 H          -3.1984    0.2415    1.9535 H       1  UNL11       0.0465
     29 H          -2.8855   -1.0686    0.8026 H       1  UNL11       0.0465
     30 H          -2.9145    1.9706    0.2257 H       1  UNL11       0.0325
     31 H          -2.6397    0.6619   -1.0414 H       1  UNL11       0.0325
     32 H          -4.5375   -1.2191    0.4304 H       1  UNL11       0.0572
     33 H          -6.9369   -1.3519    0.5716 H       1  UNL11       0.0307
     34 H          -6.8332   -0.6431   -1.1362 H       1  UNL11       0.0307
     35 H          -7.5362    0.5941    1.5733 H       1  UNL11       0.0268
     36 H          -8.3147    0.8534   -0.0346 H       1  UNL11       0.0268
     37 H          -6.1659    2.3809    1.2811 H       1  UNL11       0.0268
     38 H          -7.2435    2.8504   -0.0521 H       1  UNL11       0.0268
     39 H          -4.9059    2.8472   -0.7093 H       1  UNL11       0.0310
     40 H          -5.8473    1.6595   -1.6775 H       1  UNL11       0.0310
     41 H           2.9968    0.2091    0.2702 H       1  UNL11       0.1495
     42 H           0.6897   -0.4247   -1.4799 H       1  UNL11       0.0529
     43 H           2.3526   -1.0402   -1.7114 H       1  UNL11       0.0529
     44 H           2.7390   -4.9040    0.6047 H       1  UNL11       0.4829
     45 H          -1.7018   -4.7738    1.8546 H       1  UNL11       0.0627
     46 H          -3.5077   -3.0764    1.5870 H       1  UNL11       0.0618
     47 H          -2.9953   -0.9189    0.4176 H       1  UNL11       0.0618
     48 H          -0.7058   -0.5241   -0.4448 H       1  UNL11       0.0624
@<TRIPOS>BOND
     1     1     2    2
     2     2     3   am
     3     2    12    1
     4     3     4    1
     5     3    27    1
     6     4     5    1
     7     4    28    1
     8     4    29    1
     9     5     6    1
    10     5    30    1
    11     5    31    1
    12     6     7    2
    13     7     8    1
    14     7    32    1
    15     8     9    1
    16     8    33    1
    17     8    34    1
    18     9    10    1
    19     9    35    1
    20     9    36    1
    21    10    11    1
    22    10    37    1
    23    10    38    1
    24    11     6    1
    25    11    39    1
    26    11    40    1
    27    12    13    2
    28    12    14   am
    29    14    15    1
    30    14    41    1
    31    15    16    1
    32    15    42    1
    33    15    43    1
    34    16    17    2
    35    17    18    1
    36    18    19   am
    37    18    44    1
    38    19    20    2
    39    19    21    1
    40    21    22   ar
    41    22    23   ar
    42    22    45    1
    43    23    24   ar
    44    23    46    1
    45    24    25   ar
    46    24    47    1
    47    25    26   ar
    48    25    48    1
    49    26    16    1
    50    26    21   ar
@<TRIPOS>MOLECULE
*****
 48 50 0 0 0
SMALL
GASTEIGER

@<TRIPOS>ATOM
      1 O          -0.8449    1.6322   -0.3903 O.2     1  UNL11      -0.2652
      2 C          -0.3393    0.9047    0.5013 C.2     1  UNL11       0.2990
      3 N          -1.2000    0.0508    1.2415 N.am    1  UNL11      -0.3073
      4 C          -2.6208   -0.0299    1.0316 C.3     1  UNL11       0.0157
      5 C          -3.2875   -1.0089    1.9728 C.3     1  UNL11      -0.0161
      6 C          -4.7396   -1.0395    1.6725 C.2     1  UNL11      -0.0720
      7 C          -5.4275   -2.1332    1.8700 C.2     1  UNL11      -0.0847
      8 C          -6.8817   -2.1193    1.5552 C.3     1  UNL11      -0.0345
      9 C          -7.5726   -0.8754    2.0441 C.3     1  UNL11      -0.0493
     10 C          -6.7098    0.3541    1.9647 C.3     1  UNL11      -0.0491
     11 C          -5.4724    0.1456    1.1427 C.3     1  UNL11      -0.0317
     12 C           1.0992    0.9629    0.7415 C.2     1  UNL11       0.2993
     13 O           1.8404    1.7275    0.0747 O.2     1  UNL11      -0.2652
     14 N           1.6989    0.1577    1.7342 N.am    1  UNL11      -0.3018
     15 C           0.9649   -0.7761    2.5642 C.3     1  UNL11       0.0606
     16 C           0.9548   -2.0819    1.8805 C.2     1  UNL11       0.1319
     17 N           1.8999   -2.9927    2.0836 N.2     1  UNL11      -0.0060
     18 N           1.8790   -4.1613    1.4648 N.am    1  UNL11      -0.0355
     19 C           0.9258   -4.5179    0.6008 C.2     1  UNL11       0.4383
     20 O           0.8973   -5.6333    0.0041 O.2     1  UNL11      -0.2116
     21 C          -0.0865   -3.6045    0.3511 C.ar    1  UNL11       0.1005
     22 C          -1.1148   -3.8907   -0.5298 C.ar    1  UNL11      -0.0441
     23 C          -2.1140   -2.9590   -0.7608 C.ar    1  UNL11      -0.0608
     24 C          -2.0838   -1.7461   -0.1124 C.ar    1  UNL11      -0.0611
     25 C          -1.0641   -1.4623    0.7612 C.ar    1  UNL11      -0.0517
     26 C          -0.0689   -2.3893    0.9916 C.ar    1  UNL11       0.0205
     27 H          -0.7173   -0.5414    1.9803 H       1  UNL11       0.1492
     28 H          -2.8743   -0.3607   -0.0092 H       1  UNL11       0.0465
     29 H          -3.0519    0.9715    1.1452 H       1  UNL11       0.0465
     30 H          -2.9150   -2.0540    1.7758 H       1  UNL11       0.0325
     31 H          -3.1622   -0.7281    3.0306 H       1  UNL11       0.0325
     32 H          -4.9195   -3.0243    2.2590 H       1  UNL11       0.0572
     33 H          -7.3228   -2.9893    2.1253 H       1  UNL11       0.0307
     34 H          -6.9763   -2.2677    0.4552 H       1  UNL11       0.0307
     35 H          -7.8976   -1.0188    3.0930 H       1  UNL11       0.0268
     36 H          -8.4677   -0.6847    1.4130 H       1  UNL11       0.0268
     37 H          -6.3834    0.6704    2.9947 H       1  UNL11       0.0268
     38 H          -7.2669    1.2318    1.5581 H       1  UNL11       0.0268
     39 H          -4.8754    1.0721    1.1695 H       1  UNL11       0.0310
     40 H          -5.7793   -0.0337    0.0767 H       1  UNL11       0.0310
     41 H           2.7300    0.2615    1.8548 H       1  UNL11       0.1495
     42 H           1.4356   -0.7945    3.5494 H       1  UNL11       0.0529
     43 H          -0.0976   -0.4738    2.6869 H       1  UNL11       0.0529
     44 H           2.6384   -4.8642    1.6429 H       1  UNL11       0.4829
     45 H          -1.1196   -4.8637   -1.0362 H       1  UNL11       0.0627
     46 H          -2.9220   -3.1944   -1.4586 H       1  UNL11       0.0618
     47 H          -2.8507   -0.9892   -0.2681 H       1  UNL11       0.0618
     48 H          -0.9903   -0.5206    1.3005 H       1  UNL11       0.0624
@<TRIPOS>BOND
     1     1     2    2
     2     2     3   am
     3     2    12    1
     4     3     4    1
     5     3    27    1
     6     4     5    1
     7     4    28    1
     8     4    29    1
     9     5     6    1
    10     5    30    1
    11     5    31    1
    12     6     7    2
    13     7     8    1
    14     7    32    1
    15     8     9    1
    16     8    33    1
    17     8    34    1
    18     9    10    1
    19     9    35    1
    20     9    36    1
    21    10    11    1
    22    10    37    1
    23    10    38    1
    24    11     6    1
    25    11    39    1
    26    11    40    1
    27    12    13    2
    28    12    14   am
    29    14    15    1
    30    14    41    1
    31    15    16    1
    32    15    42    1
    33    15    43    1
    34    16    17    2
    35    17    18    1
    36    18    19   am
    37    18    44    1
    38    19    20    2
    39    19    21    1
    40    21    22   ar
    41    22    23   ar
    42    22    45    1
    43    23    24   ar
    44    23    46    1
    45    24    25   ar
    46    24    47    1
    47    25    26   ar
    48    25    48    1
    49    26    16    1
    50    26    21   ar
@<TRIPOS>MOLECULE
*****
 48 50 0 0 0
SMALL
GASTEIGER

@<TRIPOS>ATOM
      1 O          -0.8449    1.6322   -0.3903 O.2     1  UNL11      -0.2652
      2 C          -0.3393    0.9047    0.5013 C.2     1  UNL11       0.2990
      3 N          -1.2000    0.0508    1.2415 N.am    1  UNL11      -0.3073
      4 C          -2.6208   -0.0299    1.0316 C.3     1  UNL11       0.0157
      5 C          -3.2875   -1.0089    1.9728 C.3     1  UNL11      -0.0161
      6 C          -3.0588   -0.5557    3.3664 C.2     1  UNL11      -0.0720
      7 C          -3.5020    0.6097    3.7583 C.2     1  UNL11      -0.0847
      8 C          -3.2502    1.0244    5.1649 C.3     1  UNL11      -0.0345
      9 C          -3.5038   -0.0812    6.1535 C.3     1  UNL11      -0.0493
     10 C          -3.1414   -1.4431    5.6280 C.3     1  UNL11      -0.0491
     11 C          -2.3295   -1.3846    4.3680 C.3     1  UNL11      -0.0317
     12 C           1.0992    0.9629    0.7415 C.2     1  UNL11       0.2993
     13 O           1.5880    1.7635    1.5775 O.2     1  UNL11      -0.2652
     14 N           1.9839    0.1172    0.0375 N.am    1  UNL11      -0.3018
     15 C           1.5563   -0.8409   -0.9619 C.3     1  UNL11       0.0606
     16 C           0.6209   -1.7816   -0.3195 C.2     1  UNL11       0.1319
     17 N          -0.1514   -1.4239    0.7001 N.2     1  UNL11      -0.0060
     18 N          -0.9876   -2.2771    1.2672 N.am    1  UNL11      -0.0355
     19 C          -1.1241   -3.5449    0.8715 C.2     1  UNL11       0.4383
     20 O          -1.9211   -4.3683    1.4078 O.2     1  UNL11      -0.2116
     21 C          -0.3415   -3.9722   -0.1897 C.ar    1  UNL11       0.1005
     22 C          -0.4180   -5.2695   -0.6656 C.ar    1  UNL11      -0.0441
     23 C           0.3761   -5.6700   -1.7281 C.ar    1  UNL11      -0.0608
     24 C           1.2430   -4.7753   -2.3116 C.ar    1  UNL11      -0.0611
     25 C           1.3188   -3.4888   -1.8399 C.ar    1  UNL11      -0.0517
     26 C           0.5286   -3.0894   -0.7820 C.ar    1  UNL11       0.0205
     27 H          -0.7173   -0.5414    1.9803 H       1  UNL11       0.1492
     28 H          -2.8743   -0.3607   -0.0092 H       1  UNL11       0.0465
     29 H          -3.0519    0.9715    1.1452 H       1  UNL11       0.0465
     30 H          -4.4047   -0.9902    1.8273 H       1  UNL11       0.0325
     31 H          -2.8843   -2.0293    1.8739 H       1  UNL11       0.0325
     32 H          -4.0430    1.2456    3.0467 H       1  UNL11       0.0572
     33 H          -4.0025    1.8396    5.3791 H       1  UNL11       0.0307
     34 H          -2.2080    1.4158    5.2055 H       1  UNL11       0.0307
     35 H          -4.5723   -0.0813    6.4445 H       1  UNL11       0.0268
     36 H          -2.8840    0.0922    7.0598 H       1  UNL11       0.0268
     37 H          -4.0716   -2.0368    5.4047 H       1  UNL11       0.0268
     38 H          -2.5880   -2.0505    6.3836 H       1  UNL11       0.0268
     39 H          -2.1433   -2.4156    4.0246 H       1  UNL11       0.0310
     40 H          -1.3355   -0.9180    4.6066 H       1  UNL11       0.0310
     41 H           2.9968    0.2091    0.2702 H       1  UNL11       0.1495
     42 H           1.1245   -0.2869   -1.7981 H       1  UNL11       0.0529
     43 H           2.4057   -1.4483   -1.3430 H       1  UNL11       0.0529
     44 H          -1.5874   -1.9692    2.0722 H       1  UNL11       0.4829
     45 H          -1.1158   -5.9666   -0.1857 H       1  UNL11       0.0627
     46 H           0.3085   -6.6970   -2.0967 H       1  UNL11       0.0618
     47 H           1.8824   -5.0529   -3.1479 H       1  UNL11       0.0618
     48 H           1.9855   -2.7406   -2.2626 H       1  UNL11       0.0624
@<TRIPOS>BOND
     1     1     2    2
     2     2     3   am
     3     2    12    1
     4     3     4    1
     5     3    27    1
     6     4     5    1
     7     4    28    1
     8     4    29    1
     9     5     6    1
    10     5    30    1
    11     5    31    1
    12     6     7    2
    13     7     8    1
    14     7    32    1
    15     8     9    1
    16     8    33    1
    17     8    34    1
    18     9    10    1
    19     9    35    1
    20     9    36    1
    21    10    11    1
    22    10    37    1
    23    10    38    1
    24    11     6    1
    25    11    39    1
    26    11    40    1
    27    12    13    2
    28    12    14   am
    29    14    15    1
    30    14    41    1
    31    15    16    1
    32    15    42    1
    33    15    43    1
    34    16    17    2
    35    17    18    1
    36    18    19   am
    37    18    44    1
    38    19    20    2
    39    19    21    1
    40    21    22   ar
    41    22    23   ar
    42    22    45    1
    43    23    24   ar
    44    23    46    1
    45    24    25   ar
    46    24    47    1
    47    25    26   ar
    48    25    48    1
    49    26    16    1
    50    26    21   ar
@<TRIPOS>MOLECULE
*****
 48 50 0 0 0
SMALL
GASTEIGER

@<TRIPOS>ATOM
      1 O          -0.8449    1.6322   -0.3903 O.2     1  UNL11      -0.2652
      2 C          -0.3393    0.9047    0.5013 C.2     1  UNL11       0.2990
      3 N          -1.2000    0.0508    1.2415 N.am    1  UNL11      -0.3073
      4 C          -0.7508   -0.8197    2.2950 C.3     1  UNL11       0.0157
      5 C          -0.7893   -0.1502    3.6512 C.3     1  UNL11      -0.0161
      6 C          -0.2941   -1.1108    4.6669 C.2     1  UNL11      -0.0720
      7 C           0.3218   -0.6769    5.7350 C.2     1  UNL11      -0.0847
      8 C           0.8019   -1.6756    6.7280 C.3     1  UNL11      -0.0345
      9 C          -0.2118   -2.7509    7.0109 C.3     1  UNL11      -0.0493
     10 C          -1.0306   -3.1276    5.8068 C.3     1  UNL11      -0.0491
     11 C          -0.4682   -2.5846    4.5265 C.3     1  UNL11      -0.0317
     12 C           1.0992    0.9629    0.7415 C.2     1  UNL11       0.2993
     13 O           1.8404    1.7275    0.0747 O.2     1  UNL11      -0.2652
     14 N           1.6989    0.1577    1.7342 N.am    1  UNL11      -0.3018
     15 C           0.9649   -0.7761    2.5642 C.3     1  UNL11       0.0606
     16 C           1.1449   -0.3734    3.9706 C.2     1  UNL11       0.1319
     17 N           0.7505    0.8119    4.4219 N.2     1  UNL11      -0.0060
     18 N           0.9166    1.1610    5.6865 N.am    1  UNL11      -0.0355
     19 C           1.4834    0.3682    6.5990 C.2     1  UNL11       0.4383
     20 O           1.6467    0.6933    7.8108 O.2     1  UNL11      -0.2116
     21 C           1.9141   -0.8817    6.1823 C.ar    1  UNL11       0.1005
     22 C           2.5123   -1.7681    7.0609 C.ar    1  UNL11      -0.0441
     23 C           2.9335   -3.0114    6.6174 C.ar    1  UNL11      -0.0608
     24 C           2.7564   -3.3657    5.3000 C.ar    1  UNL11      -0.0611
     25 C           2.1631   -2.4867    4.4288 C.ar    1  UNL11      -0.0517
     26 C           1.7436   -1.2487    4.8695 C.ar    1  UNL11       0.0205
     27 H          -2.2244    0.0952    0.9621 H       1  UNL11       0.1492
     28 H           0.3045   -1.1633    2.1356 H       1  UNL11       0.0465
     29 H          -1.3684   -1.7251    2.2923 H       1  UNL11       0.0465
     30 H          -0.0704    0.7171    3.6781 H       1  UNL11       0.0325
     31 H          -1.8065    0.1592    3.9394 H       1  UNL11       0.0325
     32 H           0.4671    0.4020    5.8701 H       1  UNL11       0.0572
     33 H           0.9509   -1.0995    7.6884 H       1  UNL11       0.0307
     34 H           1.7676   -2.0761    6.3434 H       1  UNL11       0.0307
     35 H          -0.8926   -2.4165    7.8178 H       1  UNL11       0.0268
     36 H           0.3169   -3.6703    7.3442 H       1  UNL11       0.0268
     37 H          -2.0808   -2.7352    5.9093 H       1  UNL11       0.0268
     38 H          -1.1460   -4.2334    5.7075 H       1  UNL11       0.0268
     39 H          -1.1443   -2.8647    3.7018 H       1  UNL11       0.0310
     40 H           0.5247   -3.0755    4.3375 H       1  UNL11       0.0310
     41 H           2.7300    0.2615    1.8548 H       1  UNL11       0.1495
     42 H          -0.0755   -0.7773    2.2325 H       1  UNL11       0.0529
     43 H           1.3639   -1.8098    2.4765 H       1  UNL11       0.0529
     44 H           0.5960    2.1043    6.0181 H       1  UNL11       0.4829
     45 H           2.6438   -1.4655    8.1069 H       1  UNL11       0.0627
     46 H           3.4050   -3.7045    7.3191 H       1  UNL11       0.0618
     47 H           3.0741   -4.3331    4.9148 H       1  UNL11       0.0618
     48 H           1.9981   -2.7139    3.3780 H       1  UNL11       0.0624
@<TRIPOS>BOND
     1     1     2    2
     2     2     3   am
     3     2    12    1
     4     3     4    1
     5     3    27    1
     6     4     5    1
     7     4    28    1
     8     4    29    1
     9     5     6    1
    10     5    30    1
    11     5    31    1
    12     6     7    2
    13     7     8    1
    14     7    32    1
    15     8     9    1
    16     8    33    1
    17     8    34    1
    18     9    10    1
    19     9    35    1
    20     9    36    1
    21    10    11    1
    22    10    37    1
    23    10    38    1
    24    11     6    1
    25    11    39    1
    26    11    40    1
    27    12    13    2
    28    12    14   am
    29    14    15    1
    30    14    41    1
    31    15    16    1
    32    15    42    1
    33    15    43    1
    34    16    17    2
    35    17    18    1
    36    18    19   am
    37    18    44    1
    38    19    20    2
    39    19    21    1
    40    21    22   ar
    41    22    23   ar
    42    22    45    1
    43    23    24   ar
    44    23    46    1
    45    24    25   ar
    46    24    47    1
    47    25    26   ar
    48    25    48    1
    49    26    16    1
    50    26    21   ar
@<TRIPOS>MOLECULE
*****
 48 50 0 0 0
SMALL
GASTEIGER

@<TRIPOS>ATOM
      1 O          -0.8449    1.6322   -0.3903 O.2     1  UNL11      -0.2652
      2 C          -0.3393    0.9047    0.5013 C.2     1  UNL11       0.2990
      3 N          -1.2000    0.0508    1.2415 N.am    1  UNL11      -0.3073
      4 C          -0.7508   -0.8197    2.2950 C.3     1  UNL11       0.0157
      5 C          -1.8805   -1.6261    2.8969 C.3     1  UNL11      -0.0161
      6 C          -2.4778   -2.4701    1.8335 C.2     1  UNL11      -0.0720
      7 C          -1.7482   -3.3616    1.2162 C.2     1  UNL11      -0.0847
      8 C          -2.3881   -4.1865    0.1560 C.3     1  UNL11      -0.0345
      9 C          -3.7501   -4.6897    0.5507 C.3     1  UNL11      -0.0493
     10 C          -4.5193   -3.7174    1.4023 C.3     1  UNL11      -0.0491
     11 C          -3.9057   -2.3486    1.4230 C.3     1  UNL11      -0.0317
     12 C           1.0992    0.9629    0.7415 C.2     1  UNL11       0.2993
     13 O           1.8404    1.7275    0.0747 O.2     1  UNL11      -0.2652
     14 N           1.6989    0.1577    1.7342 N.am    1  UNL11      -0.3018
     15 C           0.9649   -0.7761    2.5642 C.3     1  UNL11       0.0606
     16 C           0.9548   -2.0819    1.8805 C.2     1  UNL11       0.1319
     17 N           1.8999   -2.9927    2.0836 N.2     1  UNL11      -0.0060
     18 N           1.8790   -4.1613    1.4648 N.am    1  UNL11      -0.0355
     19 C           0.9258   -4.5179    0.6008 C.2     1  UNL11       0.4383
     20 O           0.8973   -5.6333    0.0041 O.2     1  UNL11      -0.2116
     21 C          -0.0865   -3.6045    0.3511 C.ar    1  UNL11       0.1005
     22 C          -1.1148   -3.8907   -0.5298 C.ar    1  UNL11      -0.0441
     23 C          -2.1140   -2.9590   -0.7608 C.ar    1  UNL11      -0.0608
     24 C          -2.0838   -1.7461   -0.1124 C.ar    1  UNL11      -0.0611
     25 C          -1.0641   -1.4623    0.7612 C.ar    1  UNL11      -0.0517
     26 C          -0.0689   -2.3893    0.9916 C.ar    1  UNL11       0.0205
     27 H          -2.2244    0.0952    0.9621 H       1  UNL11       0.1492
     28 H          -0.2770   -0.2511    3.1372 H       1  UNL11       0.0465
     29 H           0.0287   -1.4805    1.8987 H       1  UNL11       0.0465
     30 H          -1.4790   -2.3458    3.6655 H       1  UNL11       0.0325
     31 H          -2.6757   -0.9894    3.3161 H       1  UNL11       0.0325
     32 H          -0.6931   -3.4774    1.4933 H       1  UNL11       0.0572
     33 H          -1.7229   -5.0914    0.0341 H       1  UNL11       0.0307
     34 H          -2.4027   -3.5683   -0.7706 H       1  UNL11       0.0307
     35 H          -3.6479   -5.6456    1.1003 H       1  UNL11       0.0268
     36 H          -4.3529   -4.8648   -0.3667 H       1  UNL11       0.0268
     37 H          -4.5690   -4.0829    2.4660 H       1  UNL11       0.0268
     38 H          -5.5841   -3.6284    1.0795 H       1  UNL11       0.0268
     39 H          -4.4985   -1.7107    2.0992 H       1  UNL11       0.0310
     40 H          -3.9758   -1.9116    0.3903 H       1  UNL11       0.0310
     41 H           2.7300    0.2615    1.8548 H       1  UNL11       0.1495
     42 H           1.4356   -0.7945    3.5494 H       1  UNL11       0.0529
     43 H          -0.0976   -0.4738    2.6869 H       1  UNL11       0.0529
     44 H           2.6384   -4.8642    1.6429 H       1  UNL11       0.4829
     45 H          -1.1196   -4.8637   -1.0362 H       1  UNL11       0.0627
     46 H          -2.9220   -3.1944   -1.4586 H       1  UNL11       0.0618
     47 H          -2.8507   -0.9892   -0.2681 H       1  UNL11       0.0618
     48 H          -0.9903   -0.5206    1.3005 H       1  UNL11       0.0624
@<TRIPOS>BOND
     1     1     2    2
     2     2     3   am
     3     2    12    1
     4     3     4    1
     5     3    27    1
     6     4     5    1
     7     4    28    1
     8     4    29    1
     9     5     6    1
    10     5    30    1
    11     5    31    1
    12     6     7    2
    13     7     8    1
    14     7    32    1
    15     8     9    1
    16     8    33    1
    17     8    34    1
    18     9    10    1
    19     9    35    1
    20     9    36    1
    21    10    11    1
    22    10    37    1
    23    10    38    1
    24    11     6    1
    25    11    39    1
    26    11    40    1
    27    12    13    2
    28    12    14   am
    29    14    15    1
    30    14    41    1
    31    15    16    1
    32    15    42    1
    33    15    43    1
    34    16    17    2
    35    17    18    1
    36    18    19   am
    37    18    44    1
    38    19    20    2
    39    19    21    1
    40    21    22   ar
    41    22    23   ar
    42    22    45    1
    43    23    24   ar
    44    23    46    1
    45    24    25   ar
    46    24    47    1
    47    25    26   ar
    48    25    48    1
    49    26    16    1
    50    26    21   ar
@<TRIPOS>MOLECULE
*****
 48 50 0 0 0
SMALL
GASTEIGER

@<TRIPOS>ATOM
      1 O          -0.8449    1.6322   -0.3903 O.2     1  UNL11      -0.2652
      2 C          -0.3393    0.9047    0.5013 C.2     1  UNL11       0.2990
      3 N          -1.2000    0.0508    1.2415 N.am    1  UNL11      -0.3073
      4 C          -2.6208   -0.0299    1.0316 C.3     1  UNL11       0.0157
      5 C          -3.2044    1.2737    0.5327 C.3     1  UNL11      -0.0161
      6 C          -2.9211    2.3320    1.5325 C.2     1  UNL11      -0.0720
      7 C          -3.7724    2.5698    2.4953 C.2     1  UNL11      -0.0847
      8 C          -3.4480    3.6404    3.4763 C.3     1  UNL11      -0.0345
      9 C          -2.0155    3.5974    3.9345 C.3     1  UNL11      -0.0493
     10 C          -1.0598    3.1619    2.8578 C.3     1  UNL11      -0.0491
     11 C          -1.6818    3.1594    1.4927 C.3     1  UNL11      -0.0317
     12 C           1.0992    0.9629    0.7415 C.2     1  UNL11       0.2993
     13 O           1.8234   -0.0552    0.6086 O.2     1  UNL11      -0.2652
     14 N           1.7181    2.1705    1.1315 N.am    1  UNL11      -0.3018
     15 C           3.1384    2.3003    1.3874 C.3     1  UNL11       0.0606
     16 C           3.3703    2.0237    2.8166 C.2     1  UNL11       0.1319
     17 N           3.9093    2.9233    3.6316 N.2     1  UNL11      -0.0060
     18 N           4.1113    2.6632    4.9124 N.am    1  UNL11      -0.0355
     19 C           3.7971    1.4983    5.4839 C.2     1  UNL11       0.4383
     20 O           3.9865    1.2403    6.7080 O.2     1  UNL11      -0.2116
     21 C           3.2309    0.5223    4.6788 C.ar    1  UNL11       0.1005
     22 C           2.8741   -0.7144    5.1875 C.ar    1  UNL11      -0.0441
     23 C           2.3098   -1.6718    4.3600 C.ar    1  UNL11      -0.0608
     24 C           2.1035   -1.3921    3.0289 C.ar    1  UNL11      -0.0611
     25 C           2.4572   -0.1658    2.5245 C.ar    1  UNL11      -0.0517
     26 C           3.0192    0.7878    3.3477 C.ar    1  UNL11       0.0205
     27 H          -0.7173   -0.5414    1.9803 H       1  UNL11       0.1492
     28 H          -3.1712   -0.2892    1.9734 H       1  UNL11       0.0465
     29 H          -2.8279   -0.8424    0.3257 H       1  UNL11       0.0465
     30 H          -2.6806    1.5994   -0.4104 H       1  UNL11       0.0325
     31 H          -4.2955    1.2197    0.3908 H       1  UNL11       0.0325
     32 H          -4.6951    1.9793    2.5543 H       1  UNL11       0.0572
     33 H          -4.0916    3.4275    4.3801 H       1  UNL11       0.0307
     34 H          -3.7259    4.6093    3.0019 H       1  UNL11       0.0307
     35 H          -1.9220    2.9096    4.7973 H       1  UNL11       0.0268
     36 H          -1.7044    4.6165    4.2514 H       1  UNL11       0.0268
     37 H          -0.6879    2.1192    3.0629 H       1  UNL11       0.0268
     38 H          -0.1405    3.7944    2.8321 H       1  UNL11       0.0268
     39 H          -0.9359    2.7888    0.7701 H       1  UNL11       0.0310
     40 H          -1.9322    4.2187    1.2138 H       1  UNL11       0.0310
     41 H           1.0934    2.9999    1.2330 H       1  UNL11       0.1495
     42 H           3.6665    1.6232    0.7128 H       1  UNL11       0.0529
     43 H           3.4995    3.3350    1.2018 H       1  UNL11       0.0529
     44 H           4.5393    3.3918    5.5357 H       1  UNL11       0.4829
     45 H           3.0472   -0.9165    6.2516 H       1  UNL11       0.0627
     46 H           2.0314   -2.6457    4.7713 H       1  UNL11       0.0618
     47 H           1.6628   -2.1185    2.3482 H       1  UNL11       0.0618
     48 H           2.3171    0.1090    1.4815 H       1  UNL11       0.0624
@<TRIPOS>BOND
     1     1     2    2
     2     2     3   am
     3     2    12    1
     4     3     4    1
     5     3    27    1
     6     4     5    1
     7     4    28    1
     8     4    29    1
     9     5     6    1
    10     5    30    1
    11     5    31    1
    12     6     7    2
    13     7     8    1
    14     7    32    1
    15     8     9    1
    16     8    33    1
    17     8    34    1
    18     9    10    1
    19     9    35    1
    20     9    36    1
    21    10    11    1
    22    10    37    1
    23    10    38    1
    24    11     6    1
    25    11    39    1
    26    11    40    1
    27    12    13    2
    28    12    14   am
    29    14    15    1
    30    14    41    1
    31    15    16    1
    32    15    42    1
    33    15    43    1
    34    16    17    2
    35    17    18    1
    36    18    19   am
    37    18    44    1
    38    19    20    2
    39    19    21    1
    40    21    22   ar
    41    22    23   ar
    42    22    45    1
    43    23    24   ar
    44    23    46    1
    45    24    25   ar
    46    24    47    1
    47    25    26   ar
    48    25    48    1
    49    26    16    1
    50    26    21   ar
@<TRIPOS>MOLECULE
*****
 48 50 0 0 0
SMALL
GASTEIGER

@<TRIPOS>ATOM
      1 O          -0.8449    1.6322   -0.3903 O.2     1  UNL11      -0.2652
      2 C          -0.3393    0.9047    0.5013 C.2     1  UNL11       0.2990
      3 N          -1.2000    0.0508    1.2415 N.am    1  UNL11      -0.3073
      4 C          -0.7508   -0.8197    2.2950 C.3     1  UNL11       0.0157
      5 C           0.4655   -0.2762    3.0120 C.3     1  UNL11      -0.0161
      6 C           0.1116    1.0292    3.6207 C.2     1  UNL11      -0.0720
      7 C          -0.7981    1.7865    3.0663 C.2     1  UNL11      -0.0847
      8 C          -1.1219    3.0880    3.7106 C.3     1  UNL11      -0.0345
      9 C          -1.2544    2.9819    5.2056 C.3     1  UNL11      -0.0493
     10 C          -0.3108    1.9825    5.8166 C.3     1  UNL11      -0.0491
     11 C           0.7586    1.5335    4.8653 C.3     1  UNL11      -0.0317
     12 C           1.0992    0.9629    0.7415 C.2     1  UNL11       0.2993
     13 O           1.5880    1.7635    1.5775 O.2     1  UNL11      -0.2652
     14 N           1.9839    0.1172    0.0375 N.am    1  UNL11      -0.3018
     15 C           3.4207    0.1221    0.2242 C.3     1  UNL11       0.0606
     16 C           4.0000    1.0869   -0.7278 C.2     1  UNL11       0.1319
     17 N           5.2175    0.9333   -1.2360 N.2     1  UNL11      -0.0060
     18 N           5.7256    1.8056   -2.0903 N.am    1  UNL11      -0.0355
     19 C           5.0717    2.8927   -2.5063 C.2     1  UNL11       0.4383
     20 O           5.5494    3.7327   -3.3231 O.2     1  UNL11      -0.2116
     21 C           3.7957    3.1026   -2.0072 C.ar    1  UNL11       0.1005
     22 C           3.0459    4.2031   -2.3842 C.ar    1  UNL11      -0.0441
     23 C           1.7728    4.3883   -1.8696 C.ar    1  UNL11      -0.0608
     24 C           1.2527    3.4755   -0.9815 C.ar    1  UNL11      -0.0611
     25 C           1.9962    2.3842   -0.6077 C.ar    1  UNL11      -0.0517
     26 C           3.2637    2.1991   -1.1195 C.ar    1  UNL11       0.0205
     27 H          -2.2244    0.0952    0.9621 H       1  UNL11       0.1492
     28 H          -0.4710   -1.8352    1.9111 H       1  UNL11       0.0465
     29 H          -1.5765   -0.9781    2.9982 H       1  UNL11       0.0465
     30 H           0.7422   -0.9476    3.8737 H       1  UNL11       0.0325
     31 H           1.3186   -0.1177    2.3333 H       1  UNL11       0.0325
     32 H          -1.2943    1.4459    2.1492 H       1  UNL11       0.0572
     33 H          -2.1360    3.3807    3.3079 H       1  UNL11       0.0307
     34 H          -0.3368    3.8112    3.3920 H       1  UNL11       0.0307
     35 H          -2.2932    2.7017    5.4675 H       1  UNL11       0.0268
     36 H          -1.0219    3.9685    5.6621 H       1  UNL11       0.0268
     37 H          -0.8737    1.0666    6.1510 H       1  UNL11       0.0268
     38 H           0.1740    2.3750    6.7423 H       1  UNL11       0.0268
     39 H           1.3783    0.7741    5.3702 H       1  UNL11       0.0310
     40 H           1.4177    2.4127    4.6301 H       1  UNL11       0.0310
     41 H           1.5508   -0.5380   -0.6493 H       1  UNL11       0.1495
     42 H           3.6245    0.3549    1.2715 H       1  UNL11       0.0529
     43 H           3.8720   -0.8661   -0.0113 H       1  UNL11       0.0529
     44 H           6.6908    1.6612   -2.4776 H       1  UNL11       0.4829
     45 H           3.4798    4.9185   -3.0935 H       1  UNL11       0.0627
     46 H           1.1885    5.2608   -2.1735 H       1  UNL11       0.0618
     47 H           0.2568    3.5872   -0.5562 H       1  UNL11       0.0618
     48 H           1.6354    1.6319    0.0901 H       1  UNL11       0.0624
@<TRIPOS>BOND
     1     1     2    2
     2     2     3   am
     3     2    12    1
     4     3     4    1
     5     3    27    1
     6     4     5    1
     7     4    28    1
     8     4    29    1
     9     5     6    1
    10     5    30    1
    11     5    31    1
    12     6     7    2
    13     7     8    1
    14     7    32    1
    15     8     9    1
    16     8    33    1
    17     8    34    1
    18     9    10    1
    19     9    35    1
    20     9    36    1
    21    10    11    1
    22    10    37    1
    23    10    38    1
    24    11     6    1
    25    11    39    1
    26    11    40    1
    27    12    13    2
    28    12    14   am
    29    14    15    1
    30    14    41    1
    31    15    16    1
    32    15    42    1
    33    15    43    1
    34    16    17    2
    35    17    18    1
    36    18    19   am
    37    18    44    1
    38    19    20    2
    39    19    21    1
    40    21    22   ar
    41    22    23   ar
    42    22    45    1
    43    23    24   ar
    44    23    46    1
    45    24    25   ar
    46    24    47    1
    47    25    26   ar
    48    25    48    1
    49    26    16    1
    50    26    21   ar
@<TRIPOS>MOLECULE
*****
 48 50 0 0 0
SMALL
GASTEIGER

@<TRIPOS>ATOM
      1 O          -0.8449    1.6322   -0.3903 O.2     1  UNL11      -0.2652
      2 C          -0.3393    0.9047    0.5013 C.2     1  UNL11       0.2990
      3 N          -1.2000    0.0508    1.2415 N.am    1  UNL11      -0.3073
      4 C          -0.7508   -0.8197    2.2950 C.3     1  UNL11       0.0157
      5 C          -0.7893   -0.1502    3.6512 C.3     1  UNL11      -0.0161
      6 C          -0.2941   -1.1108    4.6669 C.2     1  UNL11      -0.0720
      7 C          -0.9009   -2.2557    4.8379 C.2     1  UNL11      -0.0847
      8 C          -0.3703   -3.1893    5.8679 C.3     1  UNL11      -0.0345
      9 C           1.1299   -3.3001    5.8375 C.3     1  UNL11      -0.0493
     10 C           1.8141   -2.0100    5.4770 C.3     1  UNL11      -0.0491
     11 C           0.8917   -0.8280    5.5249 C.3     1  UNL11      -0.0317
     12 C           1.0992    0.9629    0.7415 C.2     1  UNL11       0.2993
     13 O           1.8404    1.7275    0.0747 O.2     1  UNL11      -0.2652
     14 N           1.6989    0.1577    1.7342 N.am    1  UNL11      -0.3018
     15 C           3.1183    0.1632    2.0251 C.3     1  UNL11       0.0606
     16 C           3.3659   -0.8124    3.1020 C.2     1  UNL11       0.1319
     17 N           2.4515   -1.0948    4.0230 N.2     1  UNL11      -0.0060
     18 N           2.6854   -1.9730    4.9836 N.am    1  UNL11      -0.0355
     19 C           3.8370   -2.6371    5.1072 C.2     1  UNL11       0.4383
     20 O           4.0699   -3.4790    6.0226 O.2     1  UNL11      -0.2116
     21 C           4.8275   -2.3809    4.1721 C.ar    1  UNL11       0.1005
     22 C           6.0519   -3.0240    4.2240 C.ar    1  UNL11      -0.0441
     23 C           7.0243   -2.7487    3.2761 C.ar    1  UNL11      -0.0608
     24 C           6.7718   -1.8335    2.2805 C.ar    1  UNL11      -0.0611
     25 C           5.5576   -1.1959    2.2290 C.ar    1  UNL11      -0.0517
     26 C           4.5890   -1.4694    3.1724 C.ar    1  UNL11       0.0205
     27 H          -2.2244    0.0952    0.9621 H       1  UNL11       0.1492
     28 H           0.3045   -1.1633    2.1356 H       1  UNL11       0.0465
     29 H          -1.3684   -1.7251    2.2923 H       1  UNL11       0.0465
     30 H          -0.0704    0.7171    3.6781 H       1  UNL11       0.0325
     31 H          -1.8065    0.1592    3.9394 H       1  UNL11       0.0325
     32 H          -1.7772   -2.4962    4.2233 H       1  UNL11       0.0572
     33 H          -0.7833   -4.2053    5.5966 H       1  UNL11       0.0307
     34 H          -0.7628   -2.8433    6.8514 H       1  UNL11       0.0307
     35 H           1.4300   -4.0807    5.1117 H       1  UNL11       0.0268
     36 H           1.4937   -3.5889    6.8475 H       1  UNL11       0.0268
     37 H           2.2363   -2.0688    4.4350 H       1  UNL11       0.0268
     38 H           2.6944   -1.8049    6.1320 H       1  UNL11       0.0268
     39 H           1.4534    0.0660    5.2072 H       1  UNL11       0.0310
     40 H           0.5702   -0.6703    6.5899 H       1  UNL11       0.0310
     41 H           1.0599   -0.4666    2.2732 H       1  UNL11       0.1495
     42 H           3.6540   -0.0531    1.0984 H       1  UNL11       0.0529
     43 H           3.4587    1.1502    2.4066 H       1  UNL11       0.0529
     44 H           1.9455   -2.1784    5.6998 H       1  UNL11       0.4829
     45 H           6.2323   -3.7500    5.0261 H       1  UNL11       0.0627
     46 H           7.9883   -3.2618    3.3256 H       1  UNL11       0.0618
     47 H           7.5106   -1.5912    1.5185 H       1  UNL11       0.0618
     48 H           5.3041   -0.4643    1.4651 H       1  UNL11       0.0624
@<TRIPOS>BOND
     1     1     2    2
     2     2     3   am
     3     2    12    1
     4     3     4    1
     5     3    27    1
     6     4     5    1
     7     4    28    1
     8     4    29    1
     9     5     6    1
    10     5    30    1
    11     5    31    1
    12     6     7    2
    13     7     8    1
    14     7    32    1
    15     8     9    1
    16     8    33    1
    17     8    34    1
    18     9    10    1
    19     9    35    1
    20     9    36    1
    21    10    11    1
    22    10    37    1
    23    10    38    1
    24    11     6    1
    25    11    39    1
    26    11    40    1
    27    12    13    2
    28    12    14   am
    29    14    15    1
    30    14    41    1
    31    15    16    1
    32    15    42    1
    33    15    43    1
    34    16    17    2
    35    17    18    1
    36    18    19   am
    37    18    44    1
    38    19    20    2
    39    19    21    1
    40    21    22   ar
    41    22    23   ar
    42    22    45    1
    43    23    24   ar
    44    23    46    1
    45    24    25   ar
    46    24    47    1
    47    25    26   ar
    48    25    48    1
    49    26    16    1
    50    26    21   ar
@<TRIPOS>MOLECULE
*****
 48 50 0 0 0
SMALL
GASTEIGER

@<TRIPOS>ATOM
      1 O          -0.8449    1.6322   -0.3903 O.2     1  UNL11      -0.2652
      2 C          -0.3393    0.9047    0.5013 C.2     1  UNL11       0.2990
      3 N          -1.2000    0.0508    1.2415 N.am    1  UNL11      -0.3073
      4 C          -0.7508   -0.8197    2.2950 C.3     1  UNL11       0.0157
      5 C           0.4655   -0.2762    3.0120 C.3     1  UNL11      -0.0161
      6 C           0.8663   -1.2432    4.0628 C.2     1  UNL11      -0.0720
      7 C           2.1219   -1.3534    4.4085 C.2     1  UNL11      -0.0847
      8 C           2.4793   -2.3361    5.4670 C.3     1  UNL11      -0.0345
      9 C           1.5321   -2.3051    6.6357 C.3     1  UNL11      -0.0493
     10 C           0.1104   -2.0133    6.2411 C.3     1  UNL11      -0.0491
     11 C          -0.1172   -2.1184    4.7620 C.3     1  UNL11      -0.0317
     12 C           1.0992    0.9629    0.7415 C.2     1  UNL11       0.2993
     13 O           1.5880    1.7635    1.5775 O.2     1  UNL11      -0.2652
     14 N           1.9839    0.1172    0.0375 N.am    1  UNL11      -0.3018
     15 C           3.4207    0.1221    0.2242 C.3     1  UNL11       0.0606
     16 C           3.9158    1.4744   -0.0903 C.2     1  UNL11       0.1319
     17 N           4.3002    1.8188   -1.3142 N.2     1  UNL11      -0.0060
     18 N           4.7416    3.0358   -1.5838 N.am    1  UNL11      -0.0355
     19 C           4.8367    4.0025   -0.6678 C.2     1  UNL11       0.4383
     20 O           5.2576    5.1695   -0.9163 O.2     1  UNL11      -0.2116
     21 C           4.4485    3.6976    0.6274 C.ar    1  UNL11       0.1005
     22 C           4.5136    4.6387    1.6401 C.ar    1  UNL11      -0.0441
     23 C           4.1192    4.3068    2.9263 C.ar    1  UNL11      -0.0608
     24 C           3.6614    3.0381    3.1972 C.ar    1  UNL11      -0.0611
     25 C           3.5967    2.1049    2.1930 C.ar    1  UNL11      -0.0517
     26 C           3.9893    2.4346    0.9123 C.ar    1  UNL11       0.0205
     27 H          -2.2244    0.0952    0.9621 H       1  UNL11       0.1492
     28 H          -0.4710   -1.8352    1.9111 H       1  UNL11       0.0465
     29 H          -1.5765   -0.9781    2.9982 H       1  UNL11       0.0465
     30 H           1.3407   -0.2170    2.3046 H       1  UNL11       0.0325
     31 H           0.2706    0.6942    3.4957 H       1  UNL11       0.0325
     32 H           2.8723   -0.7244    3.9139 H       1  UNL11       0.0572
     33 H           3.4909   -2.0119    5.8515 H       1  UNL11       0.0307
     34 H           2.5348   -3.3346    4.9764 H       1  UNL11       0.0307
     35 H           1.8664   -1.5413    7.3645 H       1  UNL11       0.0268
     36 H           1.5334   -3.3001    7.1313 H       1  UNL11       0.0268
     37 H          -0.1770   -0.9710    6.5552 H       1  UNL11       0.0268
     38 H          -0.6154   -2.6808    6.7641 H       1  UNL11       0.0268
     39 H          -1.1651   -1.8487    4.5502 H       1  UNL11       0.0310
     40 H           0.0301   -3.1890    4.4546 H       1  UNL11       0.0310
     41 H           1.5508   -0.5380   -0.6493 H       1  UNL11       0.1495
     42 H           3.6297   -0.2006    1.2463 H       1  UNL11       0.0529
     43 H           3.9314   -0.5738   -0.4762 H       1  UNL11       0.0529
     44 H           5.0395    3.2828   -2.5599 H       1  UNL11       0.4829
     45 H           4.8817    5.6442    1.4023 H       1  UNL11       0.0627
     46 H           4.1744    5.0571    3.7193 H       1  UNL11       0.0618
     47 H           3.3427    2.7404    4.1947 H       1  UNL11       0.0618
     48 H           3.2434    1.0883    2.3502 H       1  UNL11       0.0624
@<TRIPOS>BOND
     1     1     2    2
     2     2     3   am
     3     2    12    1
     4     3     4    1
     5     3    27    1
     6     4     5    1
     7     4    28    1
     8     4    29    1
     9     5     6    1
    10     5    30    1
    11     5    31    1
    12     6     7    2
    13     7     8    1
    14     7    32    1
    15     8     9    1
    16     8    33    1
    17     8    34    1
    18     9    10    1
    19     9    35    1
    20     9    36    1
    21    10    11    1
    22    10    37    1
    23    10    38    1
    24    11     6    1
    25    11    39    1
    26    11    40    1
    27    12    13    2
    28    12    14   am
    29    14    15    1
    30    14    41    1
    31    15    16    1
    32    15    42    1
    33    15    43    1
    34    16    17    2
    35    17    18    1
    36    18    19   am
    37    18    44    1
    38    19    20    2
    39    19    21    1
    40    21    22   ar
    41    22    23   ar
    42    22    45    1
    43    23    24   ar
    44    23    46    1
    45    24    25   ar
    46    24    47    1
    47    25    26   ar
    48    25    48    1
    49    26    16    1
    50    26    21   ar
