@<TRIPOS>MOLECULE
*****
 46 49 0 0 0
SMALL
GASTEIGER

@<TRIPOS>ATOM
      1 C          -0.6968    3.3730   -3.7776 C.3     1  UNL11      -0.0349
      2 C          -0.3202    1.9511   -3.5809 C.ar    1  UNL11       0.0129
      3 C          -0.8136    0.8486   -4.2891 C.ar    1  UNL11       0.1274
      4 O          -0.2060   -0.1901   -3.7810 O.2     1  UNL11      -0.3624
      5 N           0.6194    0.1565   -2.8240 N.ar    1  UNL11      -0.0815
      6 C           0.5866    1.4889   -2.6577 C.ar    1  UNL11       0.1034
      7 C           1.3229    2.3389   -1.7218 C.3     1  UNL11       0.0578
      8 N           2.2147    1.5245   -0.8656 N.am    1  UNL11      -0.3056
      9 C           1.8897    0.2012   -0.5336 C.2     1  UNL11       0.2472
     10 O           2.7250   -0.4001    0.2215 O.2     1  UNL11      -0.2701
     11 C           0.7140   -0.5429   -0.9562 C.ar    1  UNL11       0.0721
     12 C          -0.4722    0.1628   -1.2116 C.ar    1  UNL11      -0.0433
     13 C          -1.6448   -0.4233   -1.6247 C.ar    1  UNL11      -0.0405
     14 C          -2.8626    0.3959   -1.9028 C.3     1  UNL11       0.0211
     15 C          -2.6947    1.3853   -2.9671 C.2     1  UNL11       0.1192
     16 N          -2.9817    1.0415   -4.2655 N.2     1  UNL11      -0.0073
     17 N          -2.8174    1.8710   -5.2765 N.am    1  UNL11      -0.0356
     18 C          -2.3611    3.1231   -5.1653 C.2     1  UNL11       0.4383
     19 O          -2.2050    3.9095   -6.1277 O.2     1  UNL11      -0.2116
     20 C          -2.0495    3.5479   -3.8895 C.ar    1  UNL11       0.1004
     21 C          -1.5847    4.8326   -3.7050 C.ar    1  UNL11      -0.0441
     22 C          -1.2763    5.2910   -2.4388 C.ar    1  UNL11      -0.0608
     23 C          -1.4524    4.4185   -1.3847 C.ar    1  UNL11      -0.0611
     24 C          -1.9172    3.1393   -1.5883 C.ar    1  UNL11      -0.0518
     25 C          -2.2249    2.6716   -2.8340 C.ar    1  UNL11       0.0192
     26 C          -1.6257   -1.7861   -1.7900 C.ar    1  UNL11      -0.0555
     27 C          -0.4716   -2.5282   -1.5481 C.ar    1  UNL11      -0.0254
     28 C           0.6558   -1.8990   -1.1424 C.ar    1  UNL11       0.1355
     29 F           1.7489   -2.6478   -0.9130 F       1  UNL11      -0.2047
     30 H          -0.0198    3.7567   -4.5938 H       1  UNL11       0.0279
     31 H          -1.7417    3.4597   -4.0820 H       1  UNL11       0.0279
     32 H          -0.5327    3.9474   -2.8364 H       1  UNL11       0.0279
     33 H          -1.5451    0.8918   -5.0840 H       1  UNL11       0.1060
     34 H           2.0225    3.0442   -2.2413 H       1  UNL11       0.0528
     35 H           0.6904    2.9281   -1.0461 H       1  UNL11       0.0528
     36 H           3.0931    1.9314   -0.5074 H       1  UNL11       0.1494
     37 H          -0.4603    1.2512   -1.0723 H       1  UNL11       0.0629
     38 H          -3.2947    0.8101   -0.9686 H       1  UNL11       0.0379
     39 H          -3.6319   -0.3431   -2.2514 H       1  UNL11       0.0379
     40 H          -3.0541    1.5554   -6.2598 H       1  UNL11       0.4829
     41 H          -1.4573    5.4940   -4.5543 H       1  UNL11       0.0627
     42 H          -0.9122    6.3066   -2.3235 H       1  UNL11       0.0618
     43 H          -1.2206    4.7465   -0.3818 H       1  UNL11       0.0618
     44 H          -2.0503    2.5115   -0.7492 H       1  UNL11       0.0624
     45 H          -2.4788   -2.3593   -2.1189 H       1  UNL11       0.0621
     46 H          -0.4919   -3.6215   -1.6903 H       1  UNL11       0.0646
@<TRIPOS>BOND
     1     1     2    1
     2     1    30    1
     3     1    31    1
     4     1    32    1
     5     2     3   ar
     6     3     4   ar
     7     3    33    1
     8     4     5   ar
     9     5     6   ar
    10     6     7    1
    11     6     2   ar
    12     7     8    1
    13     7    34    1
    14     7    35    1
    15     8     9   am
    16     8    36    1
    17     9    10    2
    18     9    11    1
    19    11    12   ar
    20    12    13   ar
    21    12    37    1
    22    13    14    1
    23    13    26   ar
    24    14    15    1
    25    14    38    1
    26    14    39    1
    27    15    16    2
    28    16    17    1
    29    17    18   am
    30    17    40    1
    31    18    19    2
    32    18    20    1
    33    20    21   ar
    34    21    22   ar
    35    21    41    1
    36    22    23   ar
    37    22    42    1
    38    23    24   ar
    39    23    43    1
    40    24    25   ar
    41    24    44    1
    42    25    15    1
    43    25    20   ar
    44    26    27   ar
    45    26    45    1
    46    27    28   ar
    47    27    46    1
    48    28    29    1
    49    28    11   ar
@<TRIPOS>MOLECULE
*****
 46 49 0 0 0
SMALL
GASTEIGER

@<TRIPOS>ATOM
      1 C           0.6617   -0.4401    0.3751 C.3     1  UNL11      -0.0349
      2 C          -0.5001    0.4534    0.1425 C.ar    1  UNL11       0.0129
      3 C          -1.8523    0.1283    0.3052 C.ar    1  UNL11       0.1274
      4 O          -2.5099    1.2119   -0.0101 O.2     1  UNL11      -0.3624
      5 N          -1.6998    2.1828   -0.3541 N.ar    1  UNL11      -0.0815
      6 C          -0.4272    1.7603   -0.2758 C.ar    1  UNL11       0.1034
      7 C           0.8197    2.4722   -0.5568 C.3     1  UNL11       0.0578
      8 N           1.9871    1.5872   -0.3431 N.am    1  UNL11      -0.3056
      9 C           1.8897    0.2012   -0.5336 C.2     1  UNL11       0.2472
     10 O           2.9554   -0.4640   -0.3069 O.2     1  UNL11      -0.2701
     11 C           0.7140   -0.5429   -0.9562 C.ar    1  UNL11       0.0721
     12 C          -0.4722    0.1628   -1.2116 C.ar    1  UNL11      -0.0433
     13 C          -1.6448   -0.4233   -1.6247 C.ar    1  UNL11      -0.0405
     14 C          -2.8626    0.3959   -1.9028 C.3     1  UNL11       0.0211
     15 C          -2.9595    1.6219   -1.1107 C.2     1  UNL11       0.1192
     16 N          -2.4172    2.7875   -1.5941 N.2     1  UNL11      -0.0073
     17 N          -2.4359    3.9181   -0.9170 N.am    1  UNL11      -0.0356
     18 C          -2.9739    4.0669    0.2983 C.2     1  UNL11       0.4383
     19 O          -2.9898    5.1423    0.9404 O.2     1  UNL11      -0.2116
     20 C          -3.5424    2.9396    0.8559 C.ar    1  UNL11       0.1004
     21 C          -4.1245    3.0284    2.1025 C.ar    1  UNL11      -0.0441
     22 C          -4.7128    1.9208    2.6817 C.ar    1  UNL11      -0.0608
     23 C          -4.6916    0.7409    1.9669 C.ar    1  UNL11      -0.0611
     24 C          -4.1054    0.6712    0.7237 C.ar    1  UNL11      -0.0518
     25 C          -3.5190    1.7571    0.1389 C.ar    1  UNL11       0.0192
     26 C          -1.6257   -1.7861   -1.7900 C.ar    1  UNL11      -0.0555
     27 C          -0.4716   -2.5282   -1.5481 C.ar    1  UNL11      -0.0254
     28 C           0.6558   -1.8990   -1.1424 C.ar    1  UNL11       0.1355
     29 F           1.7489   -2.6478   -0.9130 F       1  UNL11      -0.2047
     30 H           0.9034   -0.3450    1.4726 H       1  UNL11       0.0279
     31 H           0.4112   -1.4746    0.1322 H       1  UNL11       0.0279
     32 H           1.5293   -0.1106   -0.2424 H       1  UNL11       0.0279
     33 H          -2.2307   -0.8321    0.6269 H       1  UNL11       0.1060
     34 H           0.9081    2.7756   -1.6325 H       1  UNL11       0.0528
     35 H           0.9846    3.3646    0.0598 H       1  UNL11       0.0528
     36 H           2.8910    1.9924   -0.0525 H       1  UNL11       0.1494
     37 H          -0.4603    1.2512   -1.0723 H       1  UNL11       0.0629
     38 H          -3.7820   -0.2249   -1.8838 H       1  UNL11       0.0379
     39 H          -2.7644    0.6996   -2.9787 H       1  UNL11       0.0379
     40 H          -2.0030    4.7895   -1.3360 H       1  UNL11       0.4829
     41 H          -4.1247    3.9705    2.6387 H       1  UNL11       0.0627
     42 H          -5.1631    2.0200    3.6639 H       1  UNL11       0.0618
     43 H          -5.1434   -0.1435    2.3918 H       1  UNL11       0.0618
     44 H          -4.1264   -0.2501    0.2072 H       1  UNL11       0.0624
     45 H          -2.4788   -2.3593   -2.1189 H       1  UNL11       0.0621
     46 H          -0.4919   -3.6215   -1.6903 H       1  UNL11       0.0646
@<TRIPOS>BOND
     1     1     2    1
     2     1    30    1
     3     1    31    1
     4     1    32    1
     5     2     3   ar
     6     3     4   ar
     7     3    33    1
     8     4     5   ar
     9     5     6   ar
    10     6     7    1
    11     6     2   ar
    12     7     8    1
    13     7    34    1
    14     7    35    1
    15     8     9   am
    16     8    36    1
    17     9    10    2
    18     9    11    1
    19    11    12   ar
    20    12    13   ar
    21    12    37    1
    22    13    14    1
    23    13    26   ar
    24    14    15    1
    25    14    38    1
    26    14    39    1
    27    15    16    2
    28    16    17    1
    29    17    18   am
    30    17    40    1
    31    18    19    2
    32    18    20    1
    33    20    21   ar
    34    21    22   ar
    35    21    41    1
    36    22    23   ar
    37    22    42    1
    38    23    24   ar
    39    23    43    1
    40    24    25   ar
    41    24    44    1
    42    25    15    1
    43    25    20   ar
    44    26    27   ar
    45    26    45    1
    46    27    28   ar
    47    27    46    1
    48    28    29    1
    49    28    11   ar
@<TRIPOS>MOLECULE
*****
 46 49 0 0 0
SMALL
GASTEIGER

@<TRIPOS>ATOM
      1 C           0.5199    0.1761    1.4796 C.3     1  UNL11      -0.0349
      2 C           0.4642   -1.2967    1.3068 C.ar    1  UNL11       0.0129
      3 C          -0.6729   -2.1084    1.4003 C.ar    1  UNL11       0.1274
      4 O          -0.2504   -3.3242    1.1778 O.2     1  UNL11      -0.3624
      5 N           1.0405   -3.3510    0.9541 N.ar    1  UNL11      -0.0815
      6 C           1.5384   -2.1055    1.0232 C.ar    1  UNL11       0.1034
      7 C           2.9107   -1.6295    0.8480 C.3     1  UNL11       0.0578
      8 N           2.9216   -0.2544    0.2997 N.am    1  UNL11      -0.3056
      9 C           1.8897    0.2012   -0.5336 C.2     1  UNL11       0.2472
     10 O           2.0108    1.3988   -0.9587 O.2     1  UNL11      -0.2701
     11 C           0.7140   -0.5429   -0.9562 C.ar    1  UNL11       0.0721
     12 C          -0.4722    0.1628   -1.2116 C.ar    1  UNL11      -0.0433
     13 C          -1.6448   -0.4233   -1.6247 C.ar    1  UNL11      -0.0405
     14 C          -2.8626    0.3959   -1.9028 C.3     1  UNL11       0.0211
     15 C          -4.0310   -0.3805   -2.3175 C.2     1  UNL11       0.1192
     16 N          -5.2909    0.0724   -2.0116 N.2     1  UNL11      -0.0073
     17 N          -6.3843   -0.5952   -2.3217 N.am    1  UNL11      -0.0356
     18 C          -6.4014   -1.7708   -2.9591 C.2     1  UNL11       0.4383
     19 O          -7.4417   -2.4039   -3.2521 O.2     1  UNL11      -0.2116
     20 C          -5.1724   -2.2958   -3.3038 C.ar    1  UNL11       0.1004
     21 C          -5.1212   -3.5000   -3.9731 C.ar    1  UNL11      -0.0441
     22 C          -3.9068   -4.0450   -4.3428 C.ar    1  UNL11      -0.0608
     23 C          -2.7663   -3.3403   -4.0170 C.ar    1  UNL11      -0.0611
     24 C          -2.8370   -2.1397   -3.3482 C.ar    1  UNL11      -0.0518
     25 C          -4.0298   -1.5890   -2.9751 C.ar    1  UNL11       0.0192
     26 C          -1.6257   -1.7861   -1.7900 C.ar    1  UNL11      -0.0555
     27 C          -0.4716   -2.5282   -1.5481 C.ar    1  UNL11      -0.0254
     28 C           0.6558   -1.8990   -1.1424 C.ar    1  UNL11       0.1355
     29 F           1.7489   -2.6478   -0.9130 F       1  UNL11      -0.2047
     30 H           0.2840    0.6103    0.4659 H       1  UNL11       0.0279
     31 H          -0.2166    0.5093    2.2135 H       1  UNL11       0.0279
     32 H           1.5397    0.4861    1.8060 H       1  UNL11       0.0279
     33 H          -1.6741   -1.7608    1.6142 H       1  UNL11       0.1060
     34 H           3.4595   -1.5333    1.8210 H       1  UNL11       0.0528
     35 H           3.5234   -2.2415    0.1745 H       1  UNL11       0.0528
     36 H           3.6975    0.3848    0.5344 H       1  UNL11       0.1494
     37 H          -0.4603    1.2512   -1.0723 H       1  UNL11       0.0629
     38 H          -2.6319    1.2516   -2.5703 H       1  UNL11       0.0379
     39 H          -3.1133    0.8793   -0.9215 H       1  UNL11       0.0379
     40 H          -7.3328   -0.2009   -2.0624 H       1  UNL11       0.4829
     41 H          -6.0357   -4.0293   -4.2146 H       1  UNL11       0.0627
     42 H          -3.8967   -4.9943   -4.8684 H       1  UNL11       0.0618
     43 H          -1.8009   -3.7393   -4.2923 H       1  UNL11       0.0618
     44 H          -1.9380   -1.6284   -3.1330 H       1  UNL11       0.0624
     45 H          -2.4788   -2.3593   -2.1189 H       1  UNL11       0.0621
     46 H          -0.4919   -3.6215   -1.6903 H       1  UNL11       0.0646
@<TRIPOS>BOND
     1     1     2    1
     2     1    30    1
     3     1    31    1
     4     1    32    1
     5     2     3   ar
     6     3     4   ar
     7     3    33    1
     8     4     5   ar
     9     5     6   ar
    10     6     7    1
    11     6     2   ar
    12     7     8    1
    13     7    34    1
    14     7    35    1
    15     8     9   am
    16     8    36    1
    17     9    10    2
    18     9    11    1
    19    11    12   ar
    20    12    13   ar
    21    12    37    1
    22    13    14    1
    23    13    26   ar
    24    14    15    1
    25    14    38    1
    26    14    39    1
    27    15    16    2
    28    16    17    1
    29    17    18   am
    30    17    40    1
    31    18    19    2
    32    18    20    1
    33    20    21   ar
    34    21    22   ar
    35    21    41    1
    36    22    23   ar
    37    22    42    1
    38    23    24   ar
    39    23    43    1
    40    24    25   ar
    41    24    44    1
    42    25    15    1
    43    25    20   ar
    44    26    27   ar
    45    26    45    1
    46    27    28   ar
    47    27    46    1
    48    28    29    1
    49    28    11   ar
@<TRIPOS>MOLECULE
*****
 46 49 0 0 0
SMALL
GASTEIGER

@<TRIPOS>ATOM
      1 C          -0.4384    1.2551   -3.9797 C.3     1  UNL11      -0.0349
      2 C          -0.8629    1.4388   -2.5697 C.ar    1  UNL11       0.0129
      3 C          -2.1235    1.1538   -2.0308 C.ar    1  UNL11       0.1274
      4 O          -2.0392    1.4692   -0.7661 O.2     1  UNL11      -0.3624
      5 N          -0.8482    1.9235   -0.4622 N.ar    1  UNL11      -0.0815
      6 C          -0.0709    1.9254   -1.5576 C.ar    1  UNL11       0.1034
      7 C           1.3229    2.3389   -1.7218 C.3     1  UNL11       0.0578
      8 N           2.2147    1.5245   -0.8656 N.am    1  UNL11      -0.3056
      9 C           1.8897    0.2012   -0.5336 C.2     1  UNL11       0.2472
     10 O           2.7250   -0.4001    0.2215 O.2     1  UNL11      -0.2701
     11 C           0.7140   -0.5429   -0.9562 C.ar    1  UNL11       0.0721
     12 C          -0.4722    0.1628   -1.2116 C.ar    1  UNL11      -0.0433
     13 C          -1.6448   -0.4233   -1.6247 C.ar    1  UNL11      -0.0405
     14 C          -2.8626    0.3959   -1.9028 C.3     1  UNL11       0.0211
     15 C          -3.7393    0.5860   -0.7473 C.2     1  UNL11       0.1192
     16 N          -5.0376    0.1410   -0.7993 N.2     1  UNL11      -0.0073
     17 N          -5.8912    0.3128    0.1902 N.am    1  UNL11      -0.0356
     18 C          -5.6046    0.9282    1.3424 C.2     1  UNL11       0.4383
     19 O          -6.4177    1.0911    2.2812 O.2     1  UNL11      -0.2116
     20 C          -4.3164    1.4055    1.4751 C.ar    1  UNL11       0.1004
     21 C          -3.9532    2.0401    2.6439 C.ar    1  UNL11      -0.0441
     22 C          -2.6678    2.5174    2.8117 C.ar    1  UNL11      -0.0608
     23 C          -1.7786    2.3327    1.7731 C.ar    1  UNL11      -0.0611
     24 C          -2.1594    1.6971    0.6134 C.ar    1  UNL11      -0.0518
     25 C          -3.4266    1.2210    0.4325 C.ar    1  UNL11       0.0192
     26 C          -1.6257   -1.7861   -1.7900 C.ar    1  UNL11      -0.0555
     27 C          -0.4716   -2.5282   -1.5481 C.ar    1  UNL11      -0.0254
     28 C           0.6558   -1.8990   -1.1424 C.ar    1  UNL11       0.1355
     29 F           1.7489   -2.6478   -0.9130 F       1  UNL11      -0.2047
     30 H          -0.0866    0.1862   -4.0545 H       1  UNL11       0.0279
     31 H          -1.2731    1.4263   -4.6624 H       1  UNL11       0.0279
     32 H           0.3943    1.9548   -4.2244 H       1  UNL11       0.0279
     33 H          -2.9643    0.7564   -2.5820 H       1  UNL11       0.1060
     34 H           1.7064    2.1539   -2.7589 H       1  UNL11       0.0528
     35 H           1.5198    3.3888   -1.4718 H       1  UNL11       0.0528
     36 H           3.0931    1.9314   -0.5074 H       1  UNL11       0.1494
     37 H          -0.4603    1.2512   -1.0723 H       1  UNL11       0.0629
     38 H          -3.3895    0.0429   -2.8132 H       1  UNL11       0.0379
     39 H          -2.4687    1.4057   -2.1936 H       1  UNL11       0.0379
     40 H          -6.8823   -0.0502    0.0990 H       1  UNL11       0.4829
     41 H          -4.6755    2.1696    3.4416 H       1  UNL11       0.0627
     42 H          -2.4101    3.0130    3.7420 H       1  UNL11       0.0618
     43 H          -0.7655    2.6942    1.8731 H       1  UNL11       0.0618
     44 H          -1.4401    1.5652   -0.1490 H       1  UNL11       0.0624
     45 H          -2.4788   -2.3593   -2.1189 H       1  UNL11       0.0621
     46 H          -0.4919   -3.6215   -1.6903 H       1  UNL11       0.0646
@<TRIPOS>BOND
     1     1     2    1
     2     1    30    1
     3     1    31    1
     4     1    32    1
     5     2     3   ar
     6     3     4   ar
     7     3    33    1
     8     4     5   ar
     9     5     6   ar
    10     6     7    1
    11     6     2   ar
    12     7     8    1
    13     7    34    1
    14     7    35    1
    15     8     9   am
    16     8    36    1
    17     9    10    2
    18     9    11    1
    19    11    12   ar
    20    12    13   ar
    21    12    37    1
    22    13    14    1
    23    13    26   ar
    24    14    15    1
    25    14    38    1
    26    14    39    1
    27    15    16    2
    28    16    17    1
    29    17    18   am
    30    17    40    1
    31    18    19    2
    32    18    20    1
    33    20    21   ar
    34    21    22   ar
    35    21    41    1
    36    22    23   ar
    37    22    42    1
    38    23    24   ar
    39    23    43    1
    40    24    25   ar
    41    24    44    1
    42    25    15    1
    43    25    20   ar
    44    26    27   ar
    45    26    45    1
    46    27    28   ar
    47    27    46    1
    48    28    29    1
    49    28    11   ar
@<TRIPOS>MOLECULE
*****
 46 49 0 0 0
SMALL
GASTEIGER

@<TRIPOS>ATOM
      1 C          -0.2040    2.4154    0.9311 C.3     1  UNL11      -0.0349
      2 C          -0.7578    1.9590   -0.3679 C.ar    1  UNL11       0.0129
      3 C          -2.0554    1.4901   -0.6065 C.ar    1  UNL11       0.1274
      4 O          -2.0922    1.2052   -1.8808 O.2     1  UNL11      -0.3624
      5 N          -0.9435    1.4507   -2.4616 N.ar    1  UNL11      -0.0815
      6 C          -0.0709    1.9254   -1.5576 C.ar    1  UNL11       0.1034
      7 C           1.3229    2.3389   -1.7218 C.3     1  UNL11       0.0578
      8 N           2.2147    1.5245   -0.8656 N.am    1  UNL11      -0.3056
      9 C           1.8897    0.2012   -0.5336 C.2     1  UNL11       0.2472
     10 O           2.7250   -0.4001    0.2215 O.2     1  UNL11      -0.2701
     11 C           0.7140   -0.5429   -0.9562 C.ar    1  UNL11       0.0721
     12 C          -0.4722    0.1628   -1.2116 C.ar    1  UNL11      -0.0433
     13 C          -1.6448   -0.4233   -1.6247 C.ar    1  UNL11      -0.0405
     14 C          -2.8626    0.3959   -1.9028 C.3     1  UNL11       0.0211
     15 C          -3.7393    0.5860   -0.7473 C.2     1  UNL11       0.1192
     16 N          -4.7504   -0.3118   -0.5068 N.2     1  UNL11      -0.0073
     17 N          -5.5989   -0.1804    0.4931 N.am    1  UNL11      -0.0356
     18 C          -5.5805    0.8220    1.3782 C.2     1  UNL11       0.4383
     19 O          -6.3885    0.9454    2.3273 O.2     1  UNL11      -0.2116
     20 C          -4.5913    1.7692    1.2066 C.ar    1  UNL11       0.1004
     21 C          -4.5103    2.8225    2.0924 C.ar    1  UNL11      -0.0441
     22 C          -3.5237    3.7796    1.9546 C.ar    1  UNL11      -0.0608
     23 C          -2.6375    3.6351    0.9071 C.ar    1  UNL11      -0.0611
     24 C          -2.7342    2.5770    0.0325 C.ar    1  UNL11      -0.0518
     25 C          -3.7046    1.6239    0.1552 C.ar    1  UNL11       0.0192
     26 C          -1.6257   -1.7861   -1.7900 C.ar    1  UNL11      -0.0555
     27 C          -0.4716   -2.5282   -1.5481 C.ar    1  UNL11      -0.0254
     28 C           0.6558   -1.8990   -1.1424 C.ar    1  UNL11       0.1355
     29 F           1.7489   -2.6478   -0.9130 F       1  UNL11      -0.2047
     30 H          -0.4751    3.5072    1.0103 H       1  UNL11       0.0279
     31 H          -0.6441    1.8563    1.7591 H       1  UNL11       0.0279
     32 H           0.9036    2.2896    0.9418 H       1  UNL11       0.0279
     33 H          -2.8345    1.3986    0.1375 H       1  UNL11       0.1060
     34 H           1.7064    2.1539   -2.7589 H       1  UNL11       0.0528
     35 H           1.5198    3.3888   -1.4718 H       1  UNL11       0.0528
     36 H           3.0931    1.9314   -0.5074 H       1  UNL11       0.1494
     37 H          -0.4603    1.2512   -1.0723 H       1  UNL11       0.0629
     38 H          -3.3895    0.0429   -2.8132 H       1  UNL11       0.0379
     39 H          -2.4687    1.4057   -2.1936 H       1  UNL11       0.0379
     40 H          -6.3616   -0.9021    0.6343 H       1  UNL11       0.4829
     41 H          -5.2221    2.9077    2.9054 H       1  UNL11       0.0627
     42 H          -3.4842    4.5977    2.6663 H       1  UNL11       0.0618
     43 H          -1.8541    4.3665    0.7719 H       1  UNL11       0.0618
     44 H          -2.0242    2.4995   -0.7459 H       1  UNL11       0.0624
     45 H          -2.4788   -2.3593   -2.1189 H       1  UNL11       0.0621
     46 H          -0.4919   -3.6215   -1.6903 H       1  UNL11       0.0646
@<TRIPOS>BOND
     1     1     2    1
     2     1    30    1
     3     1    31    1
     4     1    32    1
     5     2     3   ar
     6     3     4   ar
     7     3    33    1
     8     4     5   ar
     9     5     6   ar
    10     6     7    1
    11     6     2   ar
    12     7     8    1
    13     7    34    1
    14     7    35    1
    15     8     9   am
    16     8    36    1
    17     9    10    2
    18     9    11    1
    19    11    12   ar
    20    12    13   ar
    21    12    37    1
    22    13    14    1
    23    13    26   ar
    24    14    15    1
    25    14    38    1
    26    14    39    1
    27    15    16    2
    28    16    17    1
    29    17    18   am
    30    17    40    1
    31    18    19    2
    32    18    20    1
    33    20    21   ar
    34    21    22   ar
    35    21    41    1
    36    22    23   ar
    37    22    42    1
    38    23    24   ar
    39    23    43    1
    40    24    25   ar
    41    24    44    1
    42    25    15    1
    43    25    20   ar
    44    26    27   ar
    45    26    45    1
    46    27    28   ar
    47    27    46    1
    48    28    29    1
    49    28    11   ar
@<TRIPOS>MOLECULE
*****
 46 49 0 0 0
SMALL
GASTEIGER

@<TRIPOS>ATOM
      1 C           2.6680    4.3079    1.1222 C.3     1  UNL11      -0.0349
      2 C           1.4453    4.4088    0.2874 C.ar    1  UNL11       0.0129
      3 C           1.0013    5.5361   -0.4145 C.ar    1  UNL11       0.1274
      4 O          -0.1054    5.1657   -1.0011 O.2     1  UNL11      -0.3624
      5 N          -0.3961    3.9161   -0.7340 N.ar    1  UNL11      -0.0815
      6 C           0.5444    3.3941    0.0704 C.ar    1  UNL11       0.1034
      7 C           0.6582    2.0498    0.6364 C.3     1  UNL11       0.0578
      8 N           1.9126    1.4001    0.1937 N.am    1  UNL11      -0.3056
      9 C           1.8897    0.2012   -0.5336 C.2     1  UNL11       0.2472
     10 O           3.0310   -0.2750   -0.8500 O.2     1  UNL11      -0.2701
     11 C           0.7140   -0.5429   -0.9562 C.ar    1  UNL11       0.0721
     12 C          -0.4722    0.1628   -1.2116 C.ar    1  UNL11      -0.0433
     13 C          -1.6448   -0.4233   -1.6247 C.ar    1  UNL11      -0.0405
     14 C          -2.8626    0.3959   -1.9028 C.3     1  UNL11       0.0211
     15 C          -4.1265   -0.2952   -1.6479 C.2     1  UNL11       0.1192
     16 N          -4.1123   -1.5904   -1.1913 N.2     1  UNL11      -0.0073
     17 N          -5.2125   -2.2838   -0.9769 N.am    1  UNL11      -0.0356
     18 C          -6.4520   -1.8216   -1.1731 C.2     1  UNL11       0.4383
     19 O          -7.4963   -2.4826   -0.9695 O.2     1  UNL11      -0.2116
     20 C          -6.5536   -0.5238   -1.6319 C.ar    1  UNL11       0.1004
     21 C          -7.8040    0.0168   -1.8438 C.ar    1  UNL11      -0.0441
     22 C          -7.9387    1.3170   -2.2906 C.ar    1  UNL11      -0.0608
     23 C          -6.7833    2.0380   -2.5111 C.ar    1  UNL11      -0.0611
     24 C          -5.5435    1.4814   -2.2944 C.ar    1  UNL11      -0.0518
     25 C          -5.3945    0.1972   -1.8541 C.ar    1  UNL11       0.0192
     26 C          -1.6257   -1.7861   -1.7900 C.ar    1  UNL11      -0.0555
     27 C          -0.4716   -2.5282   -1.5481 C.ar    1  UNL11      -0.0254
     28 C           0.6558   -1.8990   -1.1424 C.ar    1  UNL11       0.1355
     29 F           1.7489   -2.6478   -0.9130 F       1  UNL11      -0.2047
     30 H           3.4997    4.0340    0.4114 H       1  UNL11       0.0279
     31 H           2.8861    5.2606    1.6089 H       1  UNL11       0.0279
     32 H           2.5414    3.5139    1.8944 H       1  UNL11       0.0279
     33 H           1.5006    6.4947   -0.4392 H       1  UNL11       0.1060
     34 H           0.7429    2.0600    1.7543 H       1  UNL11       0.0528
     35 H          -0.1600    1.3704    0.3666 H       1  UNL11       0.0528
     36 H           2.8217    1.8344    0.4184 H       1  UNL11       0.1494
     37 H          -0.4603    1.2512   -1.0723 H       1  UNL11       0.0629
     38 H          -2.8077    0.8783   -2.9005 H       1  UNL11       0.0379
     39 H          -2.8004    1.2554   -1.1839 H       1  UNL11       0.0379
     40 H          -5.1458   -3.2805   -0.6241 H       1  UNL11       0.4829
     41 H          -8.6929   -0.5761   -1.6610 H       1  UNL11       0.0627
     42 H          -8.9352    1.7162   -2.4489 H       1  UNL11       0.0618
     43 H          -6.8544    3.0578   -2.8605 H       1  UNL11       0.0618
     44 H          -4.6870    2.0765   -2.4627 H       1  UNL11       0.0624
     45 H          -2.4788   -2.3593   -2.1189 H       1  UNL11       0.0621
     46 H          -0.4919   -3.6215   -1.6903 H       1  UNL11       0.0646
@<TRIPOS>BOND
     1     1     2    1
     2     1    30    1
     3     1    31    1
     4     1    32    1
     5     2     3   ar
     6     3     4   ar
     7     3    33    1
     8     4     5   ar
     9     5     6   ar
    10     6     7    1
    11     6     2   ar
    12     7     8    1
    13     7    34    1
    14     7    35    1
    15     8     9   am
    16     8    36    1
    17     9    10    2
    18     9    11    1
    19    11    12   ar
    20    12    13   ar
    21    12    37    1
    22    13    14    1
    23    13    26   ar
    24    14    15    1
    25    14    38    1
    26    14    39    1
    27    15    16    2
    28    16    17    1
    29    17    18   am
    30    17    40    1
    31    18    19    2
    32    18    20    1
    33    20    21   ar
    34    21    22   ar
    35    21    41    1
    36    22    23   ar
    37    22    42    1
    38    23    24   ar
    39    23    43    1
    40    24    25   ar
    41    24    44    1
    42    25    15    1
    43    25    20   ar
    44    26    27   ar
    45    26    45    1
    46    27    28   ar
    47    27    46    1
    48    28    29    1
    49    28    11   ar
@<TRIPOS>MOLECULE
*****
 46 49 0 0 0
SMALL
GASTEIGER

@<TRIPOS>ATOM
      1 C           4.5841   -1.6702    1.5963 C.3     1  UNL11      -0.0349
      2 C           4.4162   -0.2576    2.0190 C.ar    1  UNL11       0.0129
      3 C           4.3445    0.2202    3.3333 C.ar    1  UNL11       0.1274
      4 O           4.1969    1.5135    3.2244 O.2     1  UNL11      -0.3624
      5 N           4.1695    1.8902    1.9696 N.ar    1  UNL11      -0.0815
      6 C           4.3031    0.8182    1.1716 C.ar    1  UNL11       0.1034
      7 C           4.3317    0.7295   -0.2885 C.3     1  UNL11       0.0578
      8 N           3.2302   -0.1274   -0.7825 N.am    1  UNL11      -0.3056
      9 C           1.8897    0.2012   -0.5336 C.2     1  UNL11       0.2472
     10 O           1.6981    1.2710    0.1360 O.2     1  UNL11      -0.2701
     11 C           0.7140   -0.5429   -0.9562 C.ar    1  UNL11       0.0721
     12 C          -0.4722    0.1628   -1.2116 C.ar    1  UNL11      -0.0433
     13 C          -1.6448   -0.4233   -1.6247 C.ar    1  UNL11      -0.0405
     14 C          -2.8626    0.3959   -1.9028 C.3     1  UNL11       0.0211
     15 C          -2.6835    1.8331   -1.6973 C.2     1  UNL11       0.1192
     16 N          -3.7391    2.6861   -1.9078 N.2     1  UNL11      -0.0073
     17 N          -3.6372    3.9937   -1.7776 N.am    1  UNL11      -0.0356
     18 C          -2.5174    4.6376   -1.4316 C.2     1  UNL11       0.4383
     19 O          -2.4225    5.8806   -1.3092 O.2     1  UNL11      -0.2116
     20 C          -1.4075    3.8503   -1.2005 C.ar    1  UNL11       0.1004
     21 C          -0.2239    4.4517   -0.8290 C.ar    1  UNL11      -0.0441
     22 C           0.9008    3.6897   -0.5786 C.ar    1  UNL11      -0.0608
     23 C           0.7869    2.3215   -0.7147 C.ar    1  UNL11      -0.0611
     24 C          -0.4030    1.7388   -1.0868 C.ar    1  UNL11      -0.0518
     25 C          -1.5227    2.4790   -1.3389 C.ar    1  UNL11       0.0192
     26 C          -1.6257   -1.7861   -1.7900 C.ar    1  UNL11      -0.0555
     27 C          -0.4716   -2.5282   -1.5481 C.ar    1  UNL11      -0.0254
     28 C           0.6558   -1.8990   -1.1424 C.ar    1  UNL11       0.1355
     29 F           1.7489   -2.6478   -0.9130 F       1  UNL11      -0.2047
     30 H           5.6966   -1.8547    1.5878 H       1  UNL11       0.0279
     31 H           4.0947   -2.3471    2.2993 H       1  UNL11       0.0279
     32 H           4.1591   -1.8190    0.5765 H       1  UNL11       0.0279
     33 H           4.4034   -0.3887    4.2246 H       1  UNL11       0.1060
     34 H           4.1431    1.7181   -0.7827 H       1  UNL11       0.0528
     35 H           5.2605    0.3175   -0.7025 H       1  UNL11       0.0528
     36 H           3.4469   -0.9800   -1.3225 H       1  UNL11       0.1494
     37 H          -0.4603    1.2512   -1.0723 H       1  UNL11       0.0629
     38 H          -3.7569   -0.0223   -1.3965 H       1  UNL11       0.0379
     39 H          -3.0718    0.2375   -2.9940 H       1  UNL11       0.0379
     40 H          -4.4831    4.6073   -1.9519 H       1  UNL11       0.4829
     41 H          -0.1670    5.5297   -0.7307 H       1  UNL11       0.0627
     42 H           1.8188    4.1900   -0.2882 H       1  UNL11       0.0618
     43 H           1.6482    1.6973   -0.5257 H       1  UNL11       0.0618
     44 H          -0.4468    0.6861   -1.1639 H       1  UNL11       0.0624
     45 H          -2.4788   -2.3593   -2.1189 H       1  UNL11       0.0621
     46 H          -0.4919   -3.6215   -1.6903 H       1  UNL11       0.0646
@<TRIPOS>BOND
     1     1     2    1
     2     1    30    1
     3     1    31    1
     4     1    32    1
     5     2     3   ar
     6     3     4   ar
     7     3    33    1
     8     4     5   ar
     9     5     6   ar
    10     6     7    1
    11     6     2   ar
    12     7     8    1
    13     7    34    1
    14     7    35    1
    15     8     9   am
    16     8    36    1
    17     9    10    2
    18     9    11    1
    19    11    12   ar
    20    12    13   ar
    21    12    37    1
    22    13    14    1
    23    13    26   ar
    24    14    15    1
    25    14    38    1
    26    14    39    1
    27    15    16    2
    28    16    17    1
    29    17    18   am
    30    17    40    1
    31    18    19    2
    32    18    20    1
    33    20    21   ar
    34    21    22   ar
    35    21    41    1
    36    22    23   ar
    37    22    42    1
    38    23    24   ar
    39    23    43    1
    40    24    25   ar
    41    24    44    1
    42    25    15    1
    43    25    20   ar
    44    26    27   ar
    45    26    45    1
    46    27    28   ar
    47    27    46    1
    48    28    29    1
    49    28    11   ar
@<TRIPOS>MOLECULE
*****
 46 49 0 0 0
SMALL
GASTEIGER

@<TRIPOS>ATOM
      1 C           2.1627   -4.3912    1.9380 C.3     1  UNL11      -0.0349
      2 C           1.2008   -3.3446    1.5121 C.ar    1  UNL11       0.0129
      3 C          -0.1965   -3.4331    1.5330 C.ar    1  UNL11       0.1274
      4 O          -0.6234   -2.2874    1.0732 O.2     1  UNL11      -0.3624
      5 N           0.3716   -1.4915    0.7671 N.ar    1  UNL11      -0.0815
      6 C           1.5384   -2.1055    1.0232 C.ar    1  UNL11       0.1034
      7 C           2.9107   -1.6295    0.8480 C.3     1  UNL11       0.0578
      8 N           2.9216   -0.2544    0.2997 N.am    1  UNL11      -0.3056
      9 C           1.8897    0.2012   -0.5336 C.2     1  UNL11       0.2472
     10 O           2.0108    1.3988   -0.9587 O.2     1  UNL11      -0.2701
     11 C           0.7140   -0.5429   -0.9562 C.ar    1  UNL11       0.0721
     12 C          -0.4722    0.1628   -1.2116 C.ar    1  UNL11      -0.0433
     13 C          -1.6448   -0.4233   -1.6247 C.ar    1  UNL11      -0.0405
     14 C          -2.8626    0.3959   -1.9028 C.3     1  UNL11       0.0211
     15 C          -3.7393    0.5860   -0.7473 C.2     1  UNL11       0.1192
     16 N          -4.4857    1.7342   -0.6427 N.2     1  UNL11      -0.0073
     17 N          -5.2666    1.9864    0.3887 N.am    1  UNL11      -0.0356
     18 C          -5.4255    1.1728    1.4381 C.2     1  UNL11       0.4383
     19 O          -6.1677    1.4148    2.4176 O.2     1  UNL11      -0.2116
     20 C          -4.7087   -0.0064    1.4097 C.ar    1  UNL11       0.1004
     21 C          -4.8368   -0.8946    2.4563 C.ar    1  UNL11      -0.0441
     22 C          -4.1423   -2.0888    2.4509 C.ar    1  UNL11      -0.0608
     23 C          -3.3282   -2.3476    1.3675 C.ar    1  UNL11      -0.0611
     24 C          -3.2126   -1.4486    0.3319 C.ar    1  UNL11      -0.0518
     25 C          -3.8917   -0.2638    0.3238 C.ar    1  UNL11       0.0192
     26 C          -1.6257   -1.7861   -1.7900 C.ar    1  UNL11      -0.0555
     27 C          -0.4716   -2.5282   -1.5481 C.ar    1  UNL11      -0.0254
     28 C           0.6558   -1.8990   -1.1424 C.ar    1  UNL11       0.1355
     29 F           1.7489   -2.6478   -0.9130 F       1  UNL11      -0.2047
     30 H           2.2983   -4.2461    3.0481 H       1  UNL11       0.0279
     31 H           1.7680   -5.3883    1.7332 H       1  UNL11       0.0279
     32 H           3.1346   -4.2579    1.4085 H       1  UNL11       0.0279
     33 H          -0.7643   -4.2900    1.8677 H       1  UNL11       0.1060
     34 H           3.4595   -1.5333    1.8210 H       1  UNL11       0.0528
     35 H           3.5234   -2.2415    0.1745 H       1  UNL11       0.0528
     36 H           3.6975    0.3848    0.5344 H       1  UNL11       0.1494
     37 H          -0.4603    1.2512   -1.0723 H       1  UNL11       0.0629
     38 H          -3.3895    0.0429   -2.8132 H       1  UNL11       0.0379
     39 H          -2.4687    1.4057   -2.1936 H       1  UNL11       0.0379
     40 H          -5.8217    2.8883    0.4202 H       1  UNL11       0.4829
     41 H          -5.4850   -0.6617    3.2933 H       1  UNL11       0.0627
     42 H          -4.2622   -2.7686    3.2881 H       1  UNL11       0.0618
     43 H          -2.7717   -3.2729    1.3328 H       1  UNL11       0.0618
     44 H          -2.5887   -1.6964   -0.4837 H       1  UNL11       0.0624
     45 H          -2.4788   -2.3593   -2.1189 H       1  UNL11       0.0621
     46 H          -0.4919   -3.6215   -1.6903 H       1  UNL11       0.0646
@<TRIPOS>BOND
     1     1     2    1
     2     1    30    1
     3     1    31    1
     4     1    32    1
     5     2     3   ar
     6     3     4   ar
     7     3    33    1
     8     4     5   ar
     9     5     6   ar
    10     6     7    1
    11     6     2   ar
    12     7     8    1
    13     7    34    1
    14     7    35    1
    15     8     9   am
    16     8    36    1
    17     9    10    2
    18     9    11    1
    19    11    12   ar
    20    12    13   ar
    21    12    37    1
    22    13    14    1
    23    13    26   ar
    24    14    15    1
    25    14    38    1
    26    14    39    1
    27    15    16    2
    28    16    17    1
    29    17    18   am
    30    17    40    1
    31    18    19    2
    32    18    20    1
    33    20    21   ar
    34    21    22   ar
    35    21    41    1
    36    22    23   ar
    37    22    42    1
    38    23    24   ar
    39    23    43    1
    40    24    25   ar
    41    24    44    1
    42    25    15    1
    43    25    20   ar
    44    26    27   ar
    45    26    45    1
    46    27    28   ar
    47    27    46    1
    48    28    29    1
    49    28    11   ar
@<TRIPOS>MOLECULE
*****
 46 49 0 0 0
SMALL
GASTEIGER

@<TRIPOS>ATOM
      1 C           1.3080    1.0867    0.7402 C.3     1  UNL11      -0.0349
      2 C           2.4306    1.9696    1.1433 C.ar    1  UNL11       0.0129
      3 C           2.3352    3.1792    1.8423 C.ar    1  UNL11       0.1274
      4 O           3.5642    3.6020    1.9729 O.2     1  UNL11      -0.3624
      5 N           4.4184    2.7739    1.4235 N.ar    1  UNL11      -0.0815
      6 C           3.7599    1.7327    0.8884 C.ar    1  UNL11       0.1034
      7 C           4.2711    0.5625    0.1743 C.3     1  UNL11       0.0578
      8 N           3.1597   -0.3201   -0.2471 N.am    1  UNL11      -0.3056
      9 C           1.8897    0.2012   -0.5336 C.2     1  UNL11       0.2472
     10 O           1.7697    1.4656   -0.4057 O.2     1  UNL11      -0.2701
     11 C           0.7140   -0.5429   -0.9562 C.ar    1  UNL11       0.0721
     12 C          -0.4722    0.1628   -1.2116 C.ar    1  UNL11      -0.0433
     13 C          -1.6448   -0.4233   -1.6247 C.ar    1  UNL11      -0.0405
     14 C          -2.8626    0.3959   -1.9028 C.3     1  UNL11       0.0211
     15 C          -2.9595    1.6219   -1.1107 C.2     1  UNL11       0.1192
     16 N          -2.4172    2.7875   -1.5941 N.2     1  UNL11      -0.0073
     17 N          -2.4359    3.9181   -0.9170 N.am    1  UNL11      -0.0356
     18 C          -2.9739    4.0669    0.2983 C.2     1  UNL11       0.4383
     19 O          -2.9898    5.1423    0.9404 O.2     1  UNL11      -0.2116
     20 C          -3.5424    2.9396    0.8559 C.ar    1  UNL11       0.1004
     21 C          -4.1245    3.0284    2.1025 C.ar    1  UNL11      -0.0441
     22 C          -4.7128    1.9208    2.6817 C.ar    1  UNL11      -0.0608
     23 C          -4.6916    0.7409    1.9669 C.ar    1  UNL11      -0.0611
     24 C          -4.1054    0.6712    0.7237 C.ar    1  UNL11      -0.0518
     25 C          -3.5190    1.7571    0.1389 C.ar    1  UNL11       0.0192
     26 C          -1.6257   -1.7861   -1.7900 C.ar    1  UNL11      -0.0555
     27 C          -0.4716   -2.5282   -1.5481 C.ar    1  UNL11      -0.0254
     28 C           0.6558   -1.8990   -1.1424 C.ar    1  UNL11       0.1355
     29 F           1.7489   -2.6478   -0.9130 F       1  UNL11      -0.2047
     30 H           1.1188    0.4127    1.6244 H       1  UNL11       0.0279
     31 H           0.4148    1.6723    0.5142 H       1  UNL11       0.0279
     32 H           1.5952    0.4834   -0.1521 H       1  UNL11       0.0279
     33 H           1.4157    3.6334    2.1844 H       1  UNL11       0.1060
     34 H           4.7764    0.8339   -0.7889 H       1  UNL11       0.0528
     35 H           4.9638   -0.0596    0.7547 H       1  UNL11       0.0528
     36 H           3.3179   -1.3362   -0.3365 H       1  UNL11       0.1494
     37 H          -0.4603    1.2512   -1.0723 H       1  UNL11       0.0629
     38 H          -3.7820   -0.2249   -1.8838 H       1  UNL11       0.0379
     39 H          -2.7644    0.6996   -2.9787 H       1  UNL11       0.0379
     40 H          -2.0030    4.7895   -1.3360 H       1  UNL11       0.4829
     41 H          -4.1247    3.9705    2.6387 H       1  UNL11       0.0627
     42 H          -5.1631    2.0200    3.6639 H       1  UNL11       0.0618
     43 H          -5.1434   -0.1435    2.3918 H       1  UNL11       0.0618
     44 H          -4.1264   -0.2501    0.2072 H       1  UNL11       0.0624
     45 H          -2.4788   -2.3593   -2.1189 H       1  UNL11       0.0621
     46 H          -0.4919   -3.6215   -1.6903 H       1  UNL11       0.0646
@<TRIPOS>BOND
     1     1     2    1
     2     1    30    1
     3     1    31    1
     4     1    32    1
     5     2     3   ar
     6     3     4   ar
     7     3    33    1
     8     4     5   ar
     9     5     6   ar
    10     6     7    1
    11     6     2   ar
    12     7     8    1
    13     7    34    1
    14     7    35    1
    15     8     9   am
    16     8    36    1
    17     9    10    2
    18     9    11    1
    19    11    12   ar
    20    12    13   ar
    21    12    37    1
    22    13    14    1
    23    13    26   ar
    24    14    15    1
    25    14    38    1
    26    14    39    1
    27    15    16    2
    28    16    17    1
    29    17    18   am
    30    17    40    1
    31    18    19    2
    32    18    20    1
    33    20    21   ar
    34    21    22   ar
    35    21    41    1
    36    22    23   ar
    37    22    42    1
    38    23    24   ar
    39    23    43    1
    40    24    25   ar
    41    24    44    1
    42    25    15    1
    43    25    20   ar
    44    26    27   ar
    45    26    45    1
    46    27    28   ar
    47    27    46    1
    48    28    29    1
    49    28    11   ar
@<TRIPOS>MOLECULE
*****
 46 49 0 0 0
SMALL
GASTEIGER

@<TRIPOS>ATOM
      1 C           3.1181   -0.2366    2.5929 C.3     1  UNL11      -0.0349
      2 C           4.2189    0.0255    1.6328 C.ar    1  UNL11       0.0129
      3 C           5.3993   -0.7140    1.4900 C.ar    1  UNL11       0.1274
      4 O           6.0651   -0.1233    0.5340 O.2     1  UNL11      -0.3624
      5 N           5.4151    0.9136    0.0653 N.ar    1  UNL11      -0.0815
      6 C           4.2504    1.0520    0.7198 C.ar    1  UNL11       0.1034
      7 C           3.1924    2.0493    0.5573 C.3     1  UNL11       0.0578
      8 N           1.9126    1.4001    0.1937 N.am    1  UNL11      -0.3056
      9 C           1.8897    0.2012   -0.5336 C.2     1  UNL11       0.2472
     10 O           3.0310   -0.2750   -0.8500 O.2     1  UNL11      -0.2701
     11 C           0.7140   -0.5429   -0.9562 C.ar    1  UNL11       0.0721
     12 C          -0.4722    0.1628   -1.2116 C.ar    1  UNL11      -0.0433
     13 C          -1.6448   -0.4233   -1.6247 C.ar    1  UNL11      -0.0405
     14 C          -2.8626    0.3959   -1.9028 C.3     1  UNL11       0.0211
     15 C          -2.6947    1.3853   -2.9671 C.2     1  UNL11       0.1192
     16 N          -1.7318    2.3570   -2.8455 N.2     1  UNL11      -0.0073
     17 N          -1.5518    3.3005   -3.7480 N.am    1  UNL11      -0.0356
     18 C          -2.2690    3.4254   -4.8698 C.2     1  UNL11       0.4383
     19 O          -2.0967    4.3234   -5.7259 O.2     1  UNL11      -0.2116
     20 C          -3.2594    2.4848   -5.0686 C.ar    1  UNL11       0.1004
     21 C          -4.0275    2.5507   -6.2115 C.ar    1  UNL11      -0.0441
     22 C          -5.0179    1.6164   -6.4449 C.ar    1  UNL11      -0.0608
     23 C          -5.2000    0.6303   -5.4973 C.ar    1  UNL11      -0.0611
     24 C          -4.4236    0.5807   -4.3620 C.ar    1  UNL11      -0.0518
     25 C          -3.4418    1.4978   -4.1170 C.ar    1  UNL11       0.0192
     26 C          -1.6257   -1.7861   -1.7900 C.ar    1  UNL11      -0.0555
     27 C          -0.4716   -2.5282   -1.5481 C.ar    1  UNL11      -0.0254
     28 C           0.6558   -1.8990   -1.1424 C.ar    1  UNL11       0.1355
     29 F           1.7489   -2.6478   -0.9130 F       1  UNL11      -0.2047
     30 H           2.4397   -0.9788    2.0823 H       1  UNL11       0.0279
     31 H           3.5055   -0.6572    3.5229 H       1  UNL11       0.0279
     32 H           2.5658    0.7069    2.8107 H       1  UNL11       0.0279
     33 H           5.6654   -1.5862    2.0708 H       1  UNL11       0.1060
     34 H           2.9574    2.5860    1.5132 H       1  UNL11       0.0528
     35 H           3.3918    2.8047   -0.2131 H       1  UNL11       0.0528
     36 H           1.0196    1.8310    0.4809 H       1  UNL11       0.1494
     37 H          -0.4603    1.2512   -1.0723 H       1  UNL11       0.0629
     38 H          -3.2947    0.8101   -0.9686 H       1  UNL11       0.0379
     39 H          -3.6319   -0.3431   -2.2514 H       1  UNL11       0.0379
     40 H          -0.7939    4.0270   -3.6057 H       1  UNL11       0.4829
     41 H          -3.8595    3.3382   -6.9371 H       1  UNL11       0.0627
     42 H          -5.6072    1.6930   -7.3528 H       1  UNL11       0.0618
     43 H          -5.9662   -0.1157   -5.6502 H       1  UNL11       0.0618
     44 H          -4.5893   -0.2013   -3.6715 H       1  UNL11       0.0624
     45 H          -2.4788   -2.3593   -2.1189 H       1  UNL11       0.0621
     46 H          -0.4919   -3.6215   -1.6903 H       1  UNL11       0.0646
@<TRIPOS>BOND
     1     1     2    1
     2     1    30    1
     3     1    31    1
     4     1    32    1
     5     2     3   ar
     6     3     4   ar
     7     3    33    1
     8     4     5   ar
     9     5     6   ar
    10     6     7    1
    11     6     2   ar
    12     7     8    1
    13     7    34    1
    14     7    35    1
    15     8     9   am
    16     8    36    1
    17     9    10    2
    18     9    11    1
    19    11    12   ar
    20    12    13   ar
    21    12    37    1
    22    13    14    1
    23    13    26   ar
    24    14    15    1
    25    14    38    1
    26    14    39    1
    27    15    16    2
    28    16    17    1
    29    17    18   am
    30    17    40    1
    31    18    19    2
    32    18    20    1
    33    20    21   ar
    34    21    22   ar
    35    21    41    1
    36    22    23   ar
    37    22    42    1
    38    23    24   ar
    39    23    43    1
    40    24    25   ar
    41    24    44    1
    42    25    15    1
    43    25    20   ar
    44    26    27   ar
    45    26    45    1
    46    27    28   ar
    47    27    46    1
    48    28    29    1
    49    28    11   ar
@<TRIPOS>MOLECULE
*****
 46 49 0 0 0
SMALL
GASTEIGER

@<TRIPOS>ATOM
      1 C           4.3498    1.5321   -2.3237 C.3     1  UNL11      -0.0349
      2 C           4.6902    0.3153   -3.1020 C.ar    1  UNL11       0.0129
      3 C           5.4076    0.2631   -4.3034 C.ar    1  UNL11       0.1274
      4 O           5.4641   -1.0032   -4.6188 O.2     1  UNL11      -0.3624
      5 N           4.8518   -1.7475   -3.7309 N.ar    1  UNL11      -0.0815
      6 C           4.3482   -0.9704   -2.7580 C.ar    1  UNL11       0.1034
      7 C           3.5897   -1.3341   -1.5610 C.3     1  UNL11       0.0578
      8 N           3.2302   -0.1274   -0.7825 N.am    1  UNL11      -0.3056
      9 C           1.8897    0.2012   -0.5336 C.2     1  UNL11       0.2472
     10 O           1.6981    1.2710    0.1360 O.2     1  UNL11      -0.2701
     11 C           0.7140   -0.5429   -0.9562 C.ar    1  UNL11       0.0721
     12 C          -0.4722    0.1628   -1.2116 C.ar    1  UNL11      -0.0433
     13 C          -1.6448   -0.4233   -1.6247 C.ar    1  UNL11      -0.0405
     14 C          -2.8626    0.3959   -1.9028 C.3     1  UNL11       0.0211
     15 C          -4.0200    0.0578   -1.0745 C.2     1  UNL11       0.1192
     16 N          -4.5318   -1.2162   -1.1100 N.2     1  UNL11      -0.0073
     17 N          -5.5939   -1.5783   -0.4188 N.am    1  UNL11      -0.0356
     18 C          -6.2895   -0.7674    0.3855 C.2     1  UNL11       0.4383
     19 O          -7.2993   -1.1134    1.0410 O.2     1  UNL11      -0.2116
     20 C          -5.8384    0.5338    0.4780 C.ar    1  UNL11       0.1004
     21 C          -6.5047    1.4180    1.2996 C.ar    1  UNL11      -0.0441
     22 C          -6.0700    2.7234    1.4230 C.ar    1  UNL11      -0.0608
     23 C          -4.9565    3.0955    0.6984 C.ar    1  UNL11      -0.0611
     24 C          -4.3044    2.1990   -0.1171 C.ar    1  UNL11      -0.0518
     25 C          -4.7230    0.9059   -0.2502 C.ar    1  UNL11       0.0192
     26 C          -1.6257   -1.7861   -1.7900 C.ar    1  UNL11      -0.0555
     27 C          -0.4716   -2.5282   -1.5481 C.ar    1  UNL11      -0.0254
     28 C           0.6558   -1.8990   -1.1424 C.ar    1  UNL11       0.1355
     29 F           1.7489   -2.6478   -0.9130 F       1  UNL11      -0.2047
     30 H           5.2366    1.7222   -1.6534 H       1  UNL11       0.0279
     31 H           4.1881    2.3846   -2.9863 H       1  UNL11       0.0279
     32 H           3.4342    1.3539   -1.7134 H       1  UNL11       0.0279
     33 H           5.8129    1.1173   -4.8278 H       1  UNL11       0.1060
     34 H           2.5992   -1.7993   -1.8049 H       1  UNL11       0.0528
     35 H           4.1175   -2.0064   -0.8731 H       1  UNL11       0.0528
     36 H           3.9748    0.4838   -0.4115 H       1  UNL11       0.1494
     37 H          -0.4603    1.2512   -1.0723 H       1  UNL11       0.0629
     38 H          -3.0844    0.4369   -2.9892 H       1  UNL11       0.0379
     39 H          -2.5650    1.4477   -1.6484 H       1  UNL11       0.0379
     40 H          -5.9482   -2.5748   -0.4820 H       1  UNL11       0.4829
     41 H          -7.3769    1.0945    1.8560 H       1  UNL11       0.0627
     42 H          -6.6140    3.3974    2.0767 H       1  UNL11       0.0618
     43 H          -4.5909    4.1093    0.7731 H       1  UNL11       0.0618
     44 H          -3.4472    2.5251   -0.6414 H       1  UNL11       0.0624
     45 H          -2.4788   -2.3593   -2.1189 H       1  UNL11       0.0621
     46 H          -0.4919   -3.6215   -1.6903 H       1  UNL11       0.0646
@<TRIPOS>BOND
     1     1     2    1
     2     1    30    1
     3     1    31    1
     4     1    32    1
     5     2     3   ar
     6     3     4   ar
     7     3    33    1
     8     4     5   ar
     9     5     6   ar
    10     6     7    1
    11     6     2   ar
    12     7     8    1
    13     7    34    1
    14     7    35    1
    15     8     9   am
    16     8    36    1
    17     9    10    2
    18     9    11    1
    19    11    12   ar
    20    12    13   ar
    21    12    37    1
    22    13    14    1
    23    13    26   ar
    24    14    15    1
    25    14    38    1
    26    14    39    1
    27    15    16    2
    28    16    17    1
    29    17    18   am
    30    17    40    1
    31    18    19    2
    32    18    20    1
    33    20    21   ar
    34    21    22   ar
    35    21    41    1
    36    22    23   ar
    37    22    42    1
    38    23    24   ar
    39    23    43    1
    40    24    25   ar
    41    24    44    1
    42    25    15    1
    43    25    20   ar
    44    26    27   ar
    45    26    45    1
    46    27    28   ar
    47    27    46    1
    48    28    29    1
    49    28    11   ar
@<TRIPOS>MOLECULE
*****
 46 49 0 0 0
SMALL
GASTEIGER

@<TRIPOS>ATOM
      1 C           5.4340    1.1011   -1.7677 C.3     1  UNL11      -0.0349
      2 C           5.1763    0.1221   -2.8526 C.ar    1  UNL11       0.0129
      3 C           5.7220    0.1382   -4.1421 C.ar    1  UNL11       0.1274
      4 O           5.2180   -0.9052   -4.7449 O.2     1  UNL11      -0.3624
      5 N           4.4104   -1.5720   -3.9573 N.ar    1  UNL11      -0.0815
      6 C           4.3482   -0.9704   -2.7580 C.ar    1  UNL11       0.1034
      7 C           3.5897   -1.3341   -1.5610 C.3     1  UNL11       0.0578
      8 N           3.2302   -0.1274   -0.7825 N.am    1  UNL11      -0.3056
      9 C           1.8897    0.2012   -0.5336 C.2     1  UNL11       0.2472
     10 O           1.6981    1.2710    0.1360 O.2     1  UNL11      -0.2701
     11 C           0.7140   -0.5429   -0.9562 C.ar    1  UNL11       0.0721
     12 C          -0.4722    0.1628   -1.2116 C.ar    1  UNL11      -0.0433
     13 C          -1.6448   -0.4233   -1.6247 C.ar    1  UNL11      -0.0405
     14 C          -2.8626    0.3959   -1.9028 C.3     1  UNL11       0.0211
     15 C          -3.7421   -0.1595   -2.9313 C.2     1  UNL11       0.1192
     16 N          -3.2089   -0.9216   -3.9418 N.2     1  UNL11      -0.0073
     17 N          -3.9376   -1.4209   -4.9200 N.am    1  UNL11      -0.0356
     18 C          -5.2580   -1.2509   -5.0466 C.2     1  UNL11       0.4383
     19 O          -5.9485   -1.7257   -5.9776 O.2     1  UNL11      -0.2116
     20 C          -5.8724   -0.4956   -4.0683 C.ar    1  UNL11       0.1004
     21 C          -7.2343   -0.2921   -4.1343 C.ar    1  UNL11      -0.0441
     22 C          -7.8800    0.4486   -3.1633 C.ar    1  UNL11      -0.0608
     23 C          -7.1118    0.9667   -2.1411 C.ar    1  UNL11      -0.0611
     24 C          -5.7531    0.7534   -2.0920 C.ar    1  UNL11      -0.0518
     25 C          -5.1008    0.0245   -3.0450 C.ar    1  UNL11       0.0192
     26 C          -1.6257   -1.7861   -1.7900 C.ar    1  UNL11      -0.0555
     27 C          -0.4716   -2.5282   -1.5481 C.ar    1  UNL11      -0.0254
     28 C           0.6558   -1.8990   -1.1424 C.ar    1  UNL11       0.1355
     29 F           1.7489   -2.6478   -0.9130 F       1  UNL11      -0.2047
     30 H           6.3612    0.7342   -1.2409 H       1  UNL11       0.0279
     31 H           5.6024    2.0993   -2.1768 H       1  UNL11       0.0279
     32 H           4.5720    1.1272   -1.0612 H       1  UNL11       0.0279
     33 H           6.4133    0.8787   -4.5198 H       1  UNL11       0.1060
     34 H           2.5992   -1.7993   -1.8049 H       1  UNL11       0.0528
     35 H           4.1175   -2.0064   -0.8731 H       1  UNL11       0.0528
     36 H           3.9748    0.4838   -0.4115 H       1  UNL11       0.1494
     37 H          -0.4603    1.2512   -1.0723 H       1  UNL11       0.0629
     38 H          -2.6057    1.4637   -2.0603 H       1  UNL11       0.0379
     39 H          -3.4350    0.3957   -0.9375 H       1  UNL11       0.0379
     40 H          -3.4761   -2.0026   -5.6757 H       1  UNL11       0.4829
     41 H          -7.8099   -0.7129   -4.9507 H       1  UNL11       0.0627
     42 H          -8.9527    0.5927   -3.2409 H       1  UNL11       0.0618
     43 H          -7.5866    1.5504   -1.3658 H       1  UNL11       0.0618
     44 H          -5.2081    1.1573   -1.2822 H       1  UNL11       0.0624
     45 H          -2.4788   -2.3593   -2.1189 H       1  UNL11       0.0621
     46 H          -0.4919   -3.6215   -1.6903 H       1  UNL11       0.0646
@<TRIPOS>BOND
     1     1     2    1
     2     1    30    1
     3     1    31    1
     4     1    32    1
     5     2     3   ar
     6     3     4   ar
     7     3    33    1
     8     4     5   ar
     9     5     6   ar
    10     6     7    1
    11     6     2   ar
    12     7     8    1
    13     7    34    1
    14     7    35    1
    15     8     9   am
    16     8    36    1
    17     9    10    2
    18     9    11    1
    19    11    12   ar
    20    12    13   ar
    21    12    37    1
    22    13    14    1
    23    13    26   ar
    24    14    15    1
    25    14    38    1
    26    14    39    1
    27    15    16    2
    28    16    17    1
    29    17    18   am
    30    17    40    1
    31    18    19    2
    32    18    20    1
    33    20    21   ar
    34    21    22   ar
    35    21    41    1
    36    22    23   ar
    37    22    42    1
    38    23    24   ar
    39    23    43    1
    40    24    25   ar
    41    24    44    1
    42    25    15    1
    43    25    20   ar
    44    26    27   ar
    45    26    45    1
    46    27    28   ar
    47    27    46    1
    48    28    29    1
    49    28    11   ar
@<TRIPOS>MOLECULE
*****
 46 49 0 0 0
SMALL
GASTEIGER

@<TRIPOS>ATOM
      1 C           0.9468    2.3256    1.3920 C.3     1  UNL11      -0.0349
      2 C           2.3420    2.2467    1.8915 C.ar    1  UNL11       0.0129
      3 C           2.7527    2.2353    3.2301 C.ar    1  UNL11       0.1274
      4 O           4.0560    2.1567    3.1922 O.2     1  UNL11      -0.3624
      5 N           4.4996    2.1178    1.9598 N.ar    1  UNL11      -0.0815
      6 C           3.4657    2.1714    1.1041 C.ar    1  UNL11       0.1034
      7 C           3.4531    2.1577   -0.3588 C.3     1  UNL11       0.0578
      8 N           2.2147    1.5245   -0.8656 N.am    1  UNL11      -0.3056
      9 C           1.8897    0.2012   -0.5336 C.2     1  UNL11       0.2472
     10 O           2.7250   -0.4001    0.2215 O.2     1  UNL11      -0.2701
     11 C           0.7140   -0.5429   -0.9562 C.ar    1  UNL11       0.0721
     12 C          -0.4722    0.1628   -1.2116 C.ar    1  UNL11      -0.0433
     13 C          -1.6448   -0.4233   -1.6247 C.ar    1  UNL11      -0.0405
     14 C          -2.8626    0.3959   -1.9028 C.3     1  UNL11       0.0211
     15 C          -3.7393    0.5860   -0.7473 C.2     1  UNL11       0.1192
     16 N          -5.0915    0.7335   -0.9376 N.2     1  UNL11      -0.0073
     17 N          -5.9330    0.9453    0.0543 N.am    1  UNL11      -0.0356
     18 C          -5.5818    1.0406    1.3412 C.2     1  UNL11       0.4383
     19 O          -6.3833    1.2428    2.2824 O.2     1  UNL11      -0.2116
     20 C          -4.2368    0.9024    1.6183 C.ar    1  UNL11       0.1004
     21 C          -3.8101    0.9789    2.9270 C.ar    1  UNL11      -0.0441
     22 C          -2.4721    0.8320    3.2375 C.ar    1  UNL11      -0.0608
     23 C          -1.5967    0.6085    2.1949 C.ar    1  UNL11      -0.0611
     24 C          -2.0410    0.5355    0.8944 C.ar    1  UNL11      -0.0518
     25 C          -3.3602    0.6800    0.5719 C.ar    1  UNL11       0.0192
     26 C          -1.6257   -1.7861   -1.7900 C.ar    1  UNL11      -0.0555
     27 C          -0.4716   -2.5282   -1.5481 C.ar    1  UNL11      -0.0254
     28 C           0.6558   -1.8990   -1.1424 C.ar    1  UNL11       0.1355
     29 F           1.7489   -2.6478   -0.9130 F       1  UNL11      -0.2047
     30 H           0.5735    1.2618    1.3637 H       1  UNL11       0.0279
     31 H           0.3275    2.9252    2.0619 H       1  UNL11       0.0279
     32 H           0.9295    2.7694    0.3695 H       1  UNL11       0.0279
     33 H           2.0951    2.2833    4.0869 H       1  UNL11       0.1060
     34 H           3.4246    3.1889   -0.7978 H       1  UNL11       0.0528
     35 H           4.2919    1.6193   -0.8173 H       1  UNL11       0.0528
     36 H           1.5746    2.0626   -1.4709 H       1  UNL11       0.1494
     37 H          -0.4603    1.2512   -1.0723 H       1  UNL11       0.0629
     38 H          -3.3895    0.0429   -2.8132 H       1  UNL11       0.0379
     39 H          -2.4687    1.4057   -2.1936 H       1  UNL11       0.0379
     40 H          -6.9676    1.0522   -0.1472 H       1  UNL11       0.4829
     41 H          -4.5234    1.1555    3.7239 H       1  UNL11       0.0627
     42 H          -2.1649    0.8972    4.2762 H       1  UNL11       0.0618
     43 H          -0.5436    0.4890    2.4043 H       1  UNL11       0.0618
     44 H          -1.3360    0.3480    0.1303 H       1  UNL11       0.0624
     45 H          -2.4788   -2.3593   -2.1189 H       1  UNL11       0.0621
     46 H          -0.4919   -3.6215   -1.6903 H       1  UNL11       0.0646
@<TRIPOS>BOND
     1     1     2    1
     2     1    30    1
     3     1    31    1
     4     1    32    1
     5     2     3   ar
     6     3     4   ar
     7     3    33    1
     8     4     5   ar
     9     5     6   ar
    10     6     7    1
    11     6     2   ar
    12     7     8    1
    13     7    34    1
    14     7    35    1
    15     8     9   am
    16     8    36    1
    17     9    10    2
    18     9    11    1
    19    11    12   ar
    20    12    13   ar
    21    12    37    1
    22    13    14    1
    23    13    26   ar
    24    14    15    1
    25    14    38    1
    26    14    39    1
    27    15    16    2
    28    16    17    1
    29    17    18   am
    30    17    40    1
    31    18    19    2
    32    18    20    1
    33    20    21   ar
    34    21    22   ar
    35    21    41    1
    36    22    23   ar
    37    22    42    1
    38    23    24   ar
    39    23    43    1
    40    24    25   ar
    41    24    44    1
    42    25    15    1
    43    25    20   ar
    44    26    27   ar
    45    26    45    1
    46    27    28   ar
    47    27    46    1
    48    28    29    1
    49    28    11   ar
@<TRIPOS>MOLECULE
*****
 46 49 0 0 0
SMALL
GASTEIGER

@<TRIPOS>ATOM
      1 C           7.2035    1.7678   -0.5108 C.3     1  UNL11      -0.0349
      2 C           6.8139    0.3934   -0.1089 C.ar    1  UNL11       0.0129
      3 C           7.6764   -0.6549    0.2342 C.ar    1  UNL11       0.1274
      4 O           6.8986   -1.6663    0.5143 O.2     1  UNL11      -0.3624
      5 N           5.6337   -1.3516    0.3797 N.ar    1  UNL11      -0.0815
      6 C           5.5243   -0.0708   -0.0097 C.ar    1  UNL11       0.1034
      7 C           4.3317    0.7295   -0.2885 C.3     1  UNL11       0.0578
      8 N           3.2302   -0.1274   -0.7825 N.am    1  UNL11      -0.3056
      9 C           1.8897    0.2012   -0.5336 C.2     1  UNL11       0.2472
     10 O           1.6981    1.2710    0.1360 O.2     1  UNL11      -0.2701
     11 C           0.7140   -0.5429   -0.9562 C.ar    1  UNL11       0.0721
     12 C          -0.4722    0.1628   -1.2116 C.ar    1  UNL11      -0.0433
     13 C          -1.6448   -0.4233   -1.6247 C.ar    1  UNL11      -0.0405
     14 C          -2.8626    0.3959   -1.9028 C.3     1  UNL11       0.0211
     15 C          -2.5833    1.7547   -2.3670 C.2     1  UNL11       0.1192
     16 N          -2.4594    2.7726   -1.4534 N.2     1  UNL11      -0.0073
     17 N          -2.2455    4.0248   -1.8045 N.am    1  UNL11      -0.0356
     18 C          -2.1250    4.4499   -3.0667 C.2     1  UNL11       0.4383
     19 O          -1.9225    5.6407   -3.3982 O.2     1  UNL11      -0.2116
     20 C          -2.2365    3.4859   -4.0483 C.ar    1  UNL11       0.1004
     21 C          -2.1105    3.8567   -5.3701 C.ar    1  UNL11      -0.0441
     22 C          -2.2046    2.9130   -6.3746 C.ar    1  UNL11      -0.0608
     23 C          -2.4265    1.6038   -6.0003 C.ar    1  UNL11      -0.0611
     24 C          -2.5501    1.2524   -4.6754 C.ar    1  UNL11      -0.0518
     25 C          -2.4606    2.1741   -3.6716 C.ar    1  UNL11       0.0192
     26 C          -1.6257   -1.7861   -1.7900 C.ar    1  UNL11      -0.0555
     27 C          -0.4716   -2.5282   -1.5481 C.ar    1  UNL11      -0.0254
     28 C           0.6558   -1.8990   -1.1424 C.ar    1  UNL11       0.1355
     29 F           1.7489   -2.6478   -0.9130 F       1  UNL11      -0.2047
     30 H           7.3155    2.3456    0.4512 H       1  UNL11       0.0279
     31 H           8.1482    1.7595   -1.0582 H       1  UNL11       0.0279
     32 H           6.4077    2.2225   -1.1453 H       1  UNL11       0.0279
     33 H           8.7559   -0.5972    0.2509 H       1  UNL11       0.1060
     34 H           3.9075    1.2042    0.6344 H       1  UNL11       0.0528
     35 H           4.4764    1.5184   -1.0372 H       1  UNL11       0.0528
     36 H           3.4469   -0.9800   -1.3225 H       1  UNL11       0.1494
     37 H          -0.4603    1.2512   -1.0723 H       1  UNL11       0.0629
     38 H          -3.5843    0.3481   -1.0614 H       1  UNL11       0.0379
     39 H          -3.3856   -0.1419   -2.7375 H       1  UNL11       0.0379
     40 H          -2.1576    4.7726   -1.0591 H       1  UNL11       0.4829
     41 H          -1.9363    4.8941   -5.6315 H       1  UNL11       0.0627
     42 H          -2.1017    3.2336   -7.4061 H       1  UNL11       0.0618
     43 H          -2.5048    0.8416   -6.7619 H       1  UNL11       0.0618
     44 H          -2.7047    0.2353   -4.4357 H       1  UNL11       0.0624
     45 H          -2.4788   -2.3593   -2.1189 H       1  UNL11       0.0621
     46 H          -0.4919   -3.6215   -1.6903 H       1  UNL11       0.0646
@<TRIPOS>BOND
     1     1     2    1
     2     1    30    1
     3     1    31    1
     4     1    32    1
     5     2     3   ar
     6     3     4   ar
     7     3    33    1
     8     4     5   ar
     9     5     6   ar
    10     6     7    1
    11     6     2   ar
    12     7     8    1
    13     7    34    1
    14     7    35    1
    15     8     9   am
    16     8    36    1
    17     9    10    2
    18     9    11    1
    19    11    12   ar
    20    12    13   ar
    21    12    37    1
    22    13    14    1
    23    13    26   ar
    24    14    15    1
    25    14    38    1
    26    14    39    1
    27    15    16    2
    28    16    17    1
    29    17    18   am
    30    17    40    1
    31    18    19    2
    32    18    20    1
    33    20    21   ar
    34    21    22   ar
    35    21    41    1
    36    22    23   ar
    37    22    42    1
    38    23    24   ar
    39    23    43    1
    40    24    25   ar
    41    24    44    1
    42    25    15    1
    43    25    20   ar
    44    26    27   ar
    45    26    45    1
    46    27    28   ar
    47    27    46    1
    48    28    29    1
    49    28    11   ar
@<TRIPOS>MOLECULE
*****
 46 49 0 0 0
SMALL
GASTEIGER

@<TRIPOS>ATOM
      1 C           2.9982    2.7877   -2.4078 C.3     1  UNL11      -0.0349
      2 C           4.1379    2.0842   -1.7689 C.ar    1  UNL11       0.0129
      3 C           5.3073    1.6407   -2.3985 C.ar    1  UNL11       0.1274
      4 O           6.0189    1.0835   -1.4555 O.2     1  UNL11      -0.3624
      5 N           5.4077    1.1359   -0.2975 N.ar    1  UNL11      -0.0815
      6 C           4.2233    1.7537   -0.4378 C.ar    1  UNL11       0.1034
      7 C           3.1924    2.0493    0.5573 C.3     1  UNL11       0.0578
      8 N           1.9126    1.4001    0.1937 N.am    1  UNL11      -0.3056
      9 C           1.8897    0.2012   -0.5336 C.2     1  UNL11       0.2472
     10 O           3.0310   -0.2750   -0.8500 O.2     1  UNL11      -0.2701
     11 C           0.7140   -0.5429   -0.9562 C.ar    1  UNL11       0.0721
     12 C          -0.4722    0.1628   -1.2116 C.ar    1  UNL11      -0.0433
     13 C          -1.6448   -0.4233   -1.6247 C.ar    1  UNL11      -0.0405
     14 C          -2.8626    0.3959   -1.9028 C.3     1  UNL11       0.0211
     15 C          -4.0200    0.0578   -1.0745 C.2     1  UNL11       0.1192
     16 N          -4.9328    1.0322   -0.7526 N.2     1  UNL11      -0.0073
     17 N          -5.9767    0.8054    0.0193 N.am    1  UNL11      -0.0356
     18 C          -6.2699   -0.3762    0.5726 C.2     1  UNL11       0.4383
     19 O          -7.2622   -0.5894    1.3067 O.2     1  UNL11      -0.2116
     20 C          -5.3999   -1.4116    0.2968 C.ar    1  UNL11       0.1004
     21 C          -5.6516   -2.6589    0.8275 C.ar    1  UNL11      -0.0441
     22 C          -4.8064   -3.7181    0.5594 C.ar    1  UNL11      -0.0608
     23 C          -3.7167   -3.4746   -0.2510 C.ar    1  UNL11      -0.0611
     24 C          -3.4812   -2.2226   -0.7716 C.ar    1  UNL11      -0.0518
     25 C          -4.3070   -1.1657   -0.5144 C.ar    1  UNL11       0.0192
     26 C          -1.6257   -1.7861   -1.7900 C.ar    1  UNL11      -0.0555
     27 C          -0.4716   -2.5282   -1.5481 C.ar    1  UNL11      -0.0254
     28 C           0.6558   -1.8990   -1.1424 C.ar    1  UNL11       0.1355
     29 F           1.7489   -2.6478   -0.9130 F       1  UNL11      -0.2047
     30 H           3.2689    3.8824   -2.3916 H       1  UNL11       0.0279
     31 H           2.8593    2.4486   -3.4362 H       1  UNL11       0.0279
     32 H           2.0634    2.6114   -1.8265 H       1  UNL11       0.0279
     33 H           5.5345    1.7556   -3.4493 H       1  UNL11       0.1060
     34 H           3.4325    1.6205    1.5650 H       1  UNL11       0.0528
     35 H           2.9772    3.1172    0.6880 H       1  UNL11       0.0528
     36 H           1.0196    1.8310    0.4809 H       1  UNL11       0.1494
     37 H          -0.4603    1.2512   -1.0723 H       1  UNL11       0.0629
     38 H          -3.0844    0.4369   -2.9892 H       1  UNL11       0.0379
     39 H          -2.5650    1.4477   -1.6484 H       1  UNL11       0.0379
     40 H          -6.6511    1.5930    0.2369 H       1  UNL11       0.4829
     41 H          -6.5168   -2.8178    1.4609 H       1  UNL11       0.0627
     42 H          -5.0291   -4.6885    0.9908 H       1  UNL11       0.0618
     43 H          -3.0365   -4.2820   -0.4801 H       1  UNL11       0.0618
     44 H          -2.6423   -2.0869   -1.3991 H       1  UNL11       0.0624
     45 H          -2.4788   -2.3593   -2.1189 H       1  UNL11       0.0621
     46 H          -0.4919   -3.6215   -1.6903 H       1  UNL11       0.0646
@<TRIPOS>BOND
     1     1     2    1
     2     1    30    1
     3     1    31    1
     4     1    32    1
     5     2     3   ar
     6     3     4   ar
     7     3    33    1
     8     4     5   ar
     9     5     6   ar
    10     6     7    1
    11     6     2   ar
    12     7     8    1
    13     7    34    1
    14     7    35    1
    15     8     9   am
    16     8    36    1
    17     9    10    2
    18     9    11    1
    19    11    12   ar
    20    12    13   ar
    21    12    37    1
    22    13    14    1
    23    13    26   ar
    24    14    15    1
    25    14    38    1
    26    14    39    1
    27    15    16    2
    28    16    17    1
    29    17    18   am
    30    17    40    1
    31    18    19    2
    32    18    20    1
    33    20    21   ar
    34    21    22   ar
    35    21    41    1
    36    22    23   ar
    37    22    42    1
    38    23    24   ar
    39    23    43    1
    40    24    25   ar
    41    24    44    1
    42    25    15    1
    43    25    20   ar
    44    26    27   ar
    45    26    45    1
    46    27    28   ar
    47    27    46    1
    48    28    29    1
    49    28    11   ar
@<TRIPOS>MOLECULE
*****
 46 49 0 0 0
SMALL
GASTEIGER

@<TRIPOS>ATOM
      1 C           2.0028   -3.9523   -1.6022 C.3     1  UNL11      -0.0349
      2 C           1.8312   -2.8268   -2.5540 C.ar    1  UNL11       0.0129
      3 C           0.9280   -2.7638   -3.6221 C.ar    1  UNL11       0.1274
      4 O           1.1288   -1.5988   -4.1777 O.2     1  UNL11      -0.3624
      5 N           2.0698   -0.9276   -3.5603 N.ar    1  UNL11      -0.0815
      6 C           2.5444   -1.6524   -2.5339 C.ar    1  UNL11       0.1034
      7 C           3.5897   -1.3341   -1.5610 C.3     1  UNL11       0.0578
      8 N           3.2302   -0.1274   -0.7825 N.am    1  UNL11      -0.3056
      9 C           1.8897    0.2012   -0.5336 C.2     1  UNL11       0.2472
     10 O           1.6981    1.2710    0.1360 O.2     1  UNL11      -0.2701
     11 C           0.7140   -0.5429   -0.9562 C.ar    1  UNL11       0.0721
     12 C          -0.4722    0.1628   -1.2116 C.ar    1  UNL11      -0.0433
     13 C          -1.6448   -0.4233   -1.6247 C.ar    1  UNL11      -0.0405
     14 C          -2.8626    0.3959   -1.9028 C.3     1  UNL11       0.0211
     15 C          -4.0310   -0.3805   -2.3175 C.2     1  UNL11       0.1192
     16 N          -4.6030   -0.1445   -3.5436 N.2     1  UNL11      -0.0073
     17 N          -5.6780   -0.7806   -3.9641 N.am    1  UNL11      -0.0356
     18 C          -6.3305   -1.7146   -3.2638 C.2     1  UNL11       0.4383
     19 O          -7.3526   -2.3174   -3.6651 O.2     1  UNL11      -0.2116
     20 C          -5.8177   -2.0119   -2.0174 C.ar    1  UNL11       0.1004
     21 C          -6.4373   -2.9744   -1.2491 C.ar    1  UNL11      -0.0441
     22 C          -5.9404   -3.3031   -0.0028 C.ar    1  UNL11      -0.0608
     23 C          -4.8138   -2.6351    0.4306 C.ar    1  UNL11      -0.0611
     24 C          -4.2089   -1.6768   -0.3502 C.ar    1  UNL11      -0.0518
     25 C          -4.6891   -1.3403   -1.5836 C.ar    1  UNL11       0.0192
     26 C          -1.6257   -1.7861   -1.7900 C.ar    1  UNL11      -0.0555
     27 C          -0.4716   -2.5282   -1.5481 C.ar    1  UNL11      -0.0254
     28 C           0.6558   -1.8990   -1.1424 C.ar    1  UNL11       0.1355
     29 F           1.7489   -2.6478   -0.9130 F       1  UNL11      -0.2047
     30 H           1.2463   -3.7770   -0.7844 H       1  UNL11       0.0279
     31 H           1.8129   -4.9088   -2.0931 H       1  UNL11       0.0279
     32 H           3.0355   -3.9461   -1.1823 H       1  UNL11       0.0279
     33 H           0.2272   -3.5402   -3.8957 H       1  UNL11       0.1060
     34 H           3.7068   -2.1303   -0.7804 H       1  UNL11       0.0528
     35 H           4.5775   -1.1433   -1.9986 H       1  UNL11       0.0528
     36 H           3.9748    0.4838   -0.4115 H       1  UNL11       0.1494
     37 H          -0.4603    1.2512   -1.0723 H       1  UNL11       0.0629
     38 H          -2.6319    1.2516   -2.5703 H       1  UNL11       0.0379
     39 H          -3.1133    0.8793   -0.9215 H       1  UNL11       0.0379
     40 H          -6.0796   -0.5606   -4.9195 H       1  UNL11       0.4829
     41 H          -7.3214   -3.4814   -1.6184 H       1  UNL11       0.0627
     42 H          -6.4488   -4.0642    0.5800 H       1  UNL11       0.0618
     43 H          -4.4000   -2.8691    1.4007 H       1  UNL11       0.0618
     44 H          -3.3395   -1.2020    0.0170 H       1  UNL11       0.0624
     45 H          -2.4788   -2.3593   -2.1189 H       1  UNL11       0.0621
     46 H          -0.4919   -3.6215   -1.6903 H       1  UNL11       0.0646
@<TRIPOS>BOND
     1     1     2    1
     2     1    30    1
     3     1    31    1
     4     1    32    1
     5     2     3   ar
     6     3     4   ar
     7     3    33    1
     8     4     5   ar
     9     5     6   ar
    10     6     7    1
    11     6     2   ar
    12     7     8    1
    13     7    34    1
    14     7    35    1
    15     8     9   am
    16     8    36    1
    17     9    10    2
    18     9    11    1
    19    11    12   ar
    20    12    13   ar
    21    12    37    1
    22    13    14    1
    23    13    26   ar
    24    14    15    1
    25    14    38    1
    26    14    39    1
    27    15    16    2
    28    16    17    1
    29    17    18   am
    30    17    40    1
    31    18    19    2
    32    18    20    1
    33    20    21   ar
    34    21    22   ar
    35    21    41    1
    36    22    23   ar
    37    22    42    1
    38    23    24   ar
    39    23    43    1
    40    24    25   ar
    41    24    44    1
    42    25    15    1
    43    25    20   ar
    44    26    27   ar
    45    26    45    1
    46    27    28   ar
    47    27    46    1
    48    28    29    1
    49    28    11   ar
@<TRIPOS>MOLECULE
*****
 46 49 0 0 0
SMALL
GASTEIGER

@<TRIPOS>ATOM
      1 C           3.1150    1.4034   -3.0162 C.3     1  UNL11      -0.0349
      2 C           3.6713    2.3877   -2.0551 C.ar    1  UNL11       0.0129
      3 C           3.7373    3.7763   -2.2225 C.ar    1  UNL11       0.1274
      4 O           4.2985    4.2306   -1.1340 O.2     1  UNL11      -0.3624
      5 N           4.5895    3.2605   -0.3024 N.ar    1  UNL11      -0.0815
      6 C           4.2170    2.0834   -0.8312 C.ar    1  UNL11       0.1034
      7 C           4.3317    0.7295   -0.2885 C.3     1  UNL11       0.0578
      8 N           3.2302   -0.1274   -0.7825 N.am    1  UNL11      -0.3056
      9 C           1.8897    0.2012   -0.5336 C.2     1  UNL11       0.2472
     10 O           1.6981    1.2710    0.1360 O.2     1  UNL11      -0.2701
     11 C           0.7140   -0.5429   -0.9562 C.ar    1  UNL11       0.0721
     12 C          -0.4722    0.1628   -1.2116 C.ar    1  UNL11      -0.0433
     13 C          -1.6448   -0.4233   -1.6247 C.ar    1  UNL11      -0.0405
     14 C          -2.8626    0.3959   -1.9028 C.3     1  UNL11       0.0211
     15 C          -3.7421   -0.1595   -2.9313 C.2     1  UNL11       0.1192
     16 N          -3.2089   -0.9216   -3.9418 N.2     1  UNL11      -0.0073
     17 N          -3.9376   -1.4209   -4.9200 N.am    1  UNL11      -0.0356
     18 C          -5.2580   -1.2509   -5.0466 C.2     1  UNL11       0.4383
     19 O          -5.9485   -1.7257   -5.9776 O.2     1  UNL11      -0.2116
     20 C          -5.8724   -0.4956   -4.0683 C.ar    1  UNL11       0.1004
     21 C          -7.2343   -0.2921   -4.1343 C.ar    1  UNL11      -0.0441
     22 C          -7.8800    0.4486   -3.1633 C.ar    1  UNL11      -0.0608
     23 C          -7.1118    0.9667   -2.1411 C.ar    1  UNL11      -0.0611
     24 C          -5.7531    0.7534   -2.0920 C.ar    1  UNL11      -0.0518
     25 C          -5.1008    0.0245   -3.0450 C.ar    1  UNL11       0.0192
     26 C          -1.6257   -1.7861   -1.7900 C.ar    1  UNL11      -0.0555
     27 C          -0.4716   -2.5282   -1.5481 C.ar    1  UNL11      -0.0254
     28 C           0.6558   -1.8990   -1.1424 C.ar    1  UNL11       0.1355
     29 F           1.7489   -2.6478   -0.9130 F       1  UNL11      -0.2047
     30 H           2.0102    1.3536   -2.7951 H       1  UNL11       0.0279
     31 H           3.2796    1.7292   -4.0451 H       1  UNL11       0.0279
     32 H           3.5865    0.4054   -2.8600 H       1  UNL11       0.0279
     33 H           3.3854    4.3196   -3.0885 H       1  UNL11       0.1060
     34 H           5.2574    0.2031   -0.6393 H       1  UNL11       0.0528
     35 H           4.3068    0.6734    0.8069 H       1  UNL11       0.0528
     36 H           3.4469   -0.9800   -1.3225 H       1  UNL11       0.1494
     37 H          -0.4603    1.2512   -1.0723 H       1  UNL11       0.0629
     38 H          -2.6057    1.4637   -2.0603 H       1  UNL11       0.0379
     39 H          -3.4350    0.3957   -0.9375 H       1  UNL11       0.0379
     40 H          -3.4761   -2.0026   -5.6757 H       1  UNL11       0.4829
     41 H          -7.8099   -0.7129   -4.9507 H       1  UNL11       0.0627
     42 H          -8.9527    0.5927   -3.2409 H       1  UNL11       0.0618
     43 H          -7.5866    1.5504   -1.3658 H       1  UNL11       0.0618
     44 H          -5.2081    1.1573   -1.2822 H       1  UNL11       0.0624
     45 H          -2.4788   -2.3593   -2.1189 H       1  UNL11       0.0621
     46 H          -0.4919   -3.6215   -1.6903 H       1  UNL11       0.0646
@<TRIPOS>BOND
     1     1     2    1
     2     1    30    1
     3     1    31    1
     4     1    32    1
     5     2     3   ar
     6     3     4   ar
     7     3    33    1
     8     4     5   ar
     9     5     6   ar
    10     6     7    1
    11     6     2   ar
    12     7     8    1
    13     7    34    1
    14     7    35    1
    15     8     9   am
    16     8    36    1
    17     9    10    2
    18     9    11    1
    19    11    12   ar
    20    12    13   ar
    21    12    37    1
    22    13    14    1
    23    13    26   ar
    24    14    15    1
    25    14    38    1
    26    14    39    1
    27    15    16    2
    28    16    17    1
    29    17    18   am
    30    17    40    1
    31    18    19    2
    32    18    20    1
    33    20    21   ar
    34    21    22   ar
    35    21    41    1
    36    22    23   ar
    37    22    42    1
    38    23    24   ar
    39    23    43    1
    40    24    25   ar
    41    24    44    1
    42    25    15    1
    43    25    20   ar
    44    26    27   ar
    45    26    45    1
    46    27    28   ar
    47    27    46    1
    48    28    29    1
    49    28    11   ar
@<TRIPOS>MOLECULE
*****
 46 49 0 0 0
SMALL
GASTEIGER

@<TRIPOS>ATOM
      1 C           2.6907    1.2612    2.7862 C.3     1  UNL11      -0.0349
      2 C           1.7799    2.4310    2.8506 C.ar    1  UNL11       0.0129
      3 C           1.6900    3.3661    3.8889 C.ar    1  UNL11       0.1274
      4 O           0.7636    4.2087    3.5175 O.2     1  UNL11      -0.3624
      5 N           0.2658    3.8910    2.3477 N.ar    1  UNL11      -0.0815
      6 C           0.8683    2.7834    1.8846 C.ar    1  UNL11       0.1034
      7 C           0.6582    2.0498    0.6364 C.3     1  UNL11       0.0578
      8 N           1.9126    1.4001    0.1937 N.am    1  UNL11      -0.3056
      9 C           1.8897    0.2012   -0.5336 C.2     1  UNL11       0.2472
     10 O           3.0310   -0.2750   -0.8500 O.2     1  UNL11      -0.2701
     11 C           0.7140   -0.5429   -0.9562 C.ar    1  UNL11       0.0721
     12 C          -0.4722    0.1628   -1.2116 C.ar    1  UNL11      -0.0433
     13 C          -1.6448   -0.4233   -1.6247 C.ar    1  UNL11      -0.0405
     14 C          -2.8626    0.3959   -1.9028 C.3     1  UNL11       0.0211
     15 C          -4.0310   -0.3805   -2.3175 C.2     1  UNL11       0.1192
     16 N          -5.2909    0.0724   -2.0116 N.2     1  UNL11      -0.0073
     17 N          -6.3843   -0.5952   -2.3217 N.am    1  UNL11      -0.0356
     18 C          -6.4014   -1.7708   -2.9591 C.2     1  UNL11       0.4383
     19 O          -7.4417   -2.4039   -3.2521 O.2     1  UNL11      -0.2116
     20 C          -5.1724   -2.2958   -3.3038 C.ar    1  UNL11       0.1004
     21 C          -5.1212   -3.5000   -3.9731 C.ar    1  UNL11      -0.0441
     22 C          -3.9068   -4.0450   -4.3428 C.ar    1  UNL11      -0.0608
     23 C          -2.7663   -3.3403   -4.0170 C.ar    1  UNL11      -0.0611
     24 C          -2.8370   -2.1397   -3.3482 C.ar    1  UNL11      -0.0518
     25 C          -4.0298   -1.5890   -2.9751 C.ar    1  UNL11       0.0192
     26 C          -1.6257   -1.7861   -1.7900 C.ar    1  UNL11      -0.0555
     27 C          -0.4716   -2.5282   -1.5481 C.ar    1  UNL11      -0.0254
     28 C           0.6558   -1.8990   -1.1424 C.ar    1  UNL11       0.1355
     29 F           1.7489   -2.6478   -0.9130 F       1  UNL11      -0.2047
     30 H           3.6540    1.6498    2.3472 H       1  UNL11       0.0279
     31 H           2.8682    0.8516    3.7826 H       1  UNL11       0.0279
     32 H           2.2563    0.4720    2.1295 H       1  UNL11       0.0279
     33 H           2.2828    3.3563    4.7930 H       1  UNL11       0.1060
     34 H          -0.0575    1.1950    0.7557 H       1  UNL11       0.0528
     35 H           0.3104    2.6660   -0.2021 H       1  UNL11       0.0528
     36 H           2.8217    1.8344    0.4184 H       1  UNL11       0.1494
     37 H          -0.4603    1.2512   -1.0723 H       1  UNL11       0.0629
     38 H          -2.6319    1.2516   -2.5703 H       1  UNL11       0.0379
     39 H          -3.1133    0.8793   -0.9215 H       1  UNL11       0.0379
     40 H          -7.3328   -0.2009   -2.0624 H       1  UNL11       0.4829
     41 H          -6.0357   -4.0293   -4.2146 H       1  UNL11       0.0627
     42 H          -3.8967   -4.9943   -4.8684 H       1  UNL11       0.0618
     43 H          -1.8009   -3.7393   -4.2923 H       1  UNL11       0.0618
     44 H          -1.9380   -1.6284   -3.1330 H       1  UNL11       0.0624
     45 H          -2.4788   -2.3593   -2.1189 H       1  UNL11       0.0621
     46 H          -0.4919   -3.6215   -1.6903 H       1  UNL11       0.0646
@<TRIPOS>BOND
     1     1     2    1
     2     1    30    1
     3     1    31    1
     4     1    32    1
     5     2     3   ar
     6     3     4   ar
     7     3    33    1
     8     4     5   ar
     9     5     6   ar
    10     6     7    1
    11     6     2   ar
    12     7     8    1
    13     7    34    1
    14     7    35    1
    15     8     9   am
    16     8    36    1
    17     9    10    2
    18     9    11    1
    19    11    12   ar
    20    12    13   ar
    21    12    37    1
    22    13    14    1
    23    13    26   ar
    24    14    15    1
    25    14    38    1
    26    14    39    1
    27    15    16    2
    28    16    17    1
    29    17    18   am
    30    17    40    1
    31    18    19    2
    32    18    20    1
    33    20    21   ar
    34    21    22   ar
    35    21    41    1
    36    22    23   ar
    37    22    42    1
    38    23    24   ar
    39    23    43    1
    40    24    25   ar
    41    24    44    1
    42    25    15    1
    43    25    20   ar
    44    26    27   ar
    45    26    45    1
    46    27    28   ar
    47    27    46    1
    48    28    29    1
    49    28    11   ar
@<TRIPOS>MOLECULE
*****
 46 49 0 0 0
SMALL
GASTEIGER

@<TRIPOS>ATOM
      1 C           4.9112   -2.2511   -0.6822 C.3     1  UNL11      -0.0349
      2 C           5.8915   -1.1521   -0.8654 C.ar    1  UNL11       0.0129
      3 C           7.2332   -1.2815   -1.2444 C.ar    1  UNL11       0.1274
      4 O           7.7031   -0.0632   -1.2777 O.2     1  UNL11      -0.3624
      5 N           6.7851    0.8150   -0.9563 N.ar    1  UNL11      -0.0815
      6 C           5.6296    0.1851   -0.6882 C.ar    1  UNL11       0.1034
      7 C           4.3317    0.7295   -0.2885 C.3     1  UNL11       0.0578
      8 N           3.2302   -0.1274   -0.7825 N.am    1  UNL11      -0.3056
      9 C           1.8897    0.2012   -0.5336 C.2     1  UNL11       0.2472
     10 O           1.6981    1.2710    0.1360 O.2     1  UNL11      -0.2701
     11 C           0.7140   -0.5429   -0.9562 C.ar    1  UNL11       0.0721
     12 C          -0.4722    0.1628   -1.2116 C.ar    1  UNL11      -0.0433
     13 C          -1.6448   -0.4233   -1.6247 C.ar    1  UNL11      -0.0405
     14 C          -2.8626    0.3959   -1.9028 C.3     1  UNL11       0.0211
     15 C          -3.7421   -0.1595   -2.9313 C.2     1  UNL11       0.1192
     16 N          -3.2089   -0.9216   -3.9418 N.2     1  UNL11      -0.0073
     17 N          -3.9376   -1.4209   -4.9200 N.am    1  UNL11      -0.0356
     18 C          -5.2580   -1.2509   -5.0466 C.2     1  UNL11       0.4383
     19 O          -5.9485   -1.7257   -5.9776 O.2     1  UNL11      -0.2116
     20 C          -5.8724   -0.4956   -4.0683 C.ar    1  UNL11       0.1004
     21 C          -7.2343   -0.2921   -4.1343 C.ar    1  UNL11      -0.0441
     22 C          -7.8800    0.4486   -3.1633 C.ar    1  UNL11      -0.0608
     23 C          -7.1118    0.9667   -2.1411 C.ar    1  UNL11      -0.0611
     24 C          -5.7531    0.7534   -2.0920 C.ar    1  UNL11      -0.0518
     25 C          -5.1008    0.0245   -3.0450 C.ar    1  UNL11       0.0192
     26 C          -1.6257   -1.7861   -1.7900 C.ar    1  UNL11      -0.0555
     27 C          -0.4716   -2.5282   -1.5481 C.ar    1  UNL11      -0.0254
     28 C           0.6558   -1.8990   -1.1424 C.ar    1  UNL11       0.1355
     29 F           1.7489   -2.6478   -0.9130 F       1  UNL11      -0.2047
     30 H           4.4711   -2.4392   -1.7034 H       1  UNL11       0.0279
     31 H           5.4028   -3.1526   -0.3113 H       1  UNL11       0.0279
     32 H           4.1138   -1.9394    0.0317 H       1  UNL11       0.0279
     33 H           7.7365   -2.2146   -1.4562 H       1  UNL11       0.1060
     34 H           4.1906    0.7310    0.8237 H       1  UNL11       0.0528
     35 H           4.1298    1.7437   -0.6552 H       1  UNL11       0.0528
     36 H           3.4469   -0.9800   -1.3225 H       1  UNL11       0.1494
     37 H          -0.4603    1.2512   -1.0723 H       1  UNL11       0.0629
     38 H          -2.6057    1.4637   -2.0603 H       1  UNL11       0.0379
     39 H          -3.4350    0.3957   -0.9375 H       1  UNL11       0.0379
     40 H          -3.4761   -2.0026   -5.6757 H       1  UNL11       0.4829
     41 H          -7.8099   -0.7129   -4.9507 H       1  UNL11       0.0627
     42 H          -8.9527    0.5927   -3.2409 H       1  UNL11       0.0618
     43 H          -7.5866    1.5504   -1.3658 H       1  UNL11       0.0618
     44 H          -5.2081    1.1573   -1.2822 H       1  UNL11       0.0624
     45 H          -2.4788   -2.3593   -2.1189 H       1  UNL11       0.0621
     46 H          -0.4919   -3.6215   -1.6903 H       1  UNL11       0.0646
@<TRIPOS>BOND
     1     1     2    1
     2     1    30    1
     3     1    31    1
     4     1    32    1
     5     2     3   ar
     6     3     4   ar
     7     3    33    1
     8     4     5   ar
     9     5     6   ar
    10     6     7    1
    11     6     2   ar
    12     7     8    1
    13     7    34    1
    14     7    35    1
    15     8     9   am
    16     8    36    1
    17     9    10    2
    18     9    11    1
    19    11    12   ar
    20    12    13   ar
    21    12    37    1
    22    13    14    1
    23    13    26   ar
    24    14    15    1
    25    14    38    1
    26    14    39    1
    27    15    16    2
    28    16    17    1
    29    17    18   am
    30    17    40    1
    31    18    19    2
    32    18    20    1
    33    20    21   ar
    34    21    22   ar
    35    21    41    1
    36    22    23   ar
    37    22    42    1
    38    23    24   ar
    39    23    43    1
    40    24    25   ar
    41    24    44    1
    42    25    15    1
    43    25    20   ar
    44    26    27   ar
    45    26    45    1
    46    27    28   ar
    47    27    46    1
    48    28    29    1
    49    28    11   ar
@<TRIPOS>MOLECULE
*****
 46 49 0 0 0
SMALL
GASTEIGER

@<TRIPOS>ATOM
      1 C           3.1150    1.4034   -3.0162 C.3     1  UNL11      -0.0349
      2 C           3.6713    2.3877   -2.0551 C.ar    1  UNL11       0.0129
      3 C           3.7373    3.7763   -2.2225 C.ar    1  UNL11       0.1274
      4 O           4.2985    4.2306   -1.1340 O.2     1  UNL11      -0.3624
      5 N           4.5895    3.2605   -0.3024 N.ar    1  UNL11      -0.0815
      6 C           4.2170    2.0834   -0.8312 C.ar    1  UNL11       0.1034
      7 C           4.3317    0.7295   -0.2885 C.3     1  UNL11       0.0578
      8 N           3.2302   -0.1274   -0.7825 N.am    1  UNL11      -0.3056
      9 C           1.8897    0.2012   -0.5336 C.2     1  UNL11       0.2472
     10 O           1.6981    1.2710    0.1360 O.2     1  UNL11      -0.2701
     11 C           0.7140   -0.5429   -0.9562 C.ar    1  UNL11       0.0721
     12 C          -0.4722    0.1628   -1.2116 C.ar    1  UNL11      -0.0433
     13 C          -1.6448   -0.4233   -1.6247 C.ar    1  UNL11      -0.0405
     14 C          -2.8626    0.3959   -1.9028 C.3     1  UNL11       0.0211
     15 C          -2.6835    1.8331   -1.6973 C.2     1  UNL11       0.1192
     16 N          -3.7391    2.6861   -1.9078 N.2     1  UNL11      -0.0073
     17 N          -3.6372    3.9937   -1.7776 N.am    1  UNL11      -0.0356
     18 C          -2.5174    4.6376   -1.4316 C.2     1  UNL11       0.4383
     19 O          -2.4225    5.8806   -1.3092 O.2     1  UNL11      -0.2116
     20 C          -1.4075    3.8503   -1.2005 C.ar    1  UNL11       0.1004
     21 C          -0.2239    4.4517   -0.8290 C.ar    1  UNL11      -0.0441
     22 C           0.9008    3.6897   -0.5786 C.ar    1  UNL11      -0.0608
     23 C           0.7869    2.3215   -0.7147 C.ar    1  UNL11      -0.0611
     24 C          -0.4030    1.7388   -1.0868 C.ar    1  UNL11      -0.0518
     25 C          -1.5227    2.4790   -1.3389 C.ar    1  UNL11       0.0192
     26 C          -1.6257   -1.7861   -1.7900 C.ar    1  UNL11      -0.0555
     27 C          -0.4716   -2.5282   -1.5481 C.ar    1  UNL11      -0.0254
     28 C           0.6558   -1.8990   -1.1424 C.ar    1  UNL11       0.1355
     29 F           1.7489   -2.6478   -0.9130 F       1  UNL11      -0.2047
     30 H           2.0102    1.3536   -2.7951 H       1  UNL11       0.0279
     31 H           3.2796    1.7292   -4.0451 H       1  UNL11       0.0279
     32 H           3.5865    0.4054   -2.8600 H       1  UNL11       0.0279
     33 H           3.3854    4.3196   -3.0885 H       1  UNL11       0.1060
     34 H           5.2574    0.2031   -0.6393 H       1  UNL11       0.0528
     35 H           4.3068    0.6734    0.8069 H       1  UNL11       0.0528
     36 H           3.4469   -0.9800   -1.3225 H       1  UNL11       0.1494
     37 H          -0.4603    1.2512   -1.0723 H       1  UNL11       0.0629
     38 H          -3.7569   -0.0223   -1.3965 H       1  UNL11       0.0379
     39 H          -3.0718    0.2375   -2.9940 H       1  UNL11       0.0379
     40 H          -4.4831    4.6073   -1.9519 H       1  UNL11       0.4829
     41 H          -0.1670    5.5297   -0.7307 H       1  UNL11       0.0627
     42 H           1.8188    4.1900   -0.2882 H       1  UNL11       0.0618
     43 H           1.6482    1.6973   -0.5257 H       1  UNL11       0.0618
     44 H          -0.4468    0.6861   -1.1639 H       1  UNL11       0.0624
     45 H          -2.4788   -2.3593   -2.1189 H       1  UNL11       0.0621
     46 H          -0.4919   -3.6215   -1.6903 H       1  UNL11       0.0646
@<TRIPOS>BOND
     1     1     2    1
     2     1    30    1
     3     1    31    1
     4     1    32    1
     5     2     3   ar
     6     3     4   ar
     7     3    33    1
     8     4     5   ar
     9     5     6   ar
    10     6     7    1
    11     6     2   ar
    12     7     8    1
    13     7    34    1
    14     7    35    1
    15     8     9   am
    16     8    36    1
    17     9    10    2
    18     9    11    1
    19    11    12   ar
    20    12    13   ar
    21    12    37    1
    22    13    14    1
    23    13    26   ar
    24    14    15    1
    25    14    38    1
    26    14    39    1
    27    15    16    2
    28    16    17    1
    29    17    18   am
    30    17    40    1
    31    18    19    2
    32    18    20    1
    33    20    21   ar
    34    21    22   ar
    35    21    41    1
    36    22    23   ar
    37    22    42    1
    38    23    24   ar
    39    23    43    1
    40    24    25   ar
    41    24    44    1
    42    25    15    1
    43    25    20   ar
    44    26    27   ar
    45    26    45    1
    46    27    28   ar
    47    27    46    1
    48    28    29    1
    49    28    11   ar
@<TRIPOS>MOLECULE
*****
 46 49 0 0 0
SMALL
GASTEIGER

@<TRIPOS>ATOM
      1 C          -1.7517    3.1718   -2.0643 C.3     1  UNL11      -0.0349
      2 C          -0.3781    3.2585   -2.6191 C.ar    1  UNL11       0.0129
      3 C          -0.0204    3.6688   -3.9092 C.ar    1  UNL11       0.1274
      4 O           1.2825    3.5867   -3.9505 O.2     1  UNL11      -0.3624
      5 N           1.7739    3.1649   -2.8112 N.ar    1  UNL11      -0.0815
      6 C           0.7749    2.9441   -1.9409 C.ar    1  UNL11       0.1034
      7 C           0.8197    2.4722   -0.5568 C.3     1  UNL11       0.0578
      8 N           1.9871    1.5872   -0.3431 N.am    1  UNL11      -0.3056
      9 C           1.8897    0.2012   -0.5336 C.2     1  UNL11       0.2472
     10 O           2.9554   -0.4640   -0.3069 O.2     1  UNL11      -0.2701
     11 C           0.7140   -0.5429   -0.9562 C.ar    1  UNL11       0.0721
     12 C          -0.4722    0.1628   -1.2116 C.ar    1  UNL11      -0.0433
     13 C          -1.6448   -0.4233   -1.6247 C.ar    1  UNL11      -0.0405
     14 C          -2.8626    0.3959   -1.9028 C.3     1  UNL11       0.0211
     15 C          -3.7421   -0.1595   -2.9313 C.2     1  UNL11       0.1192
     16 N          -4.7530   -1.0162   -2.5702 N.2     1  UNL11      -0.0073
     17 N          -5.5574   -1.5815   -3.4481 N.am    1  UNL11      -0.0356
     18 C          -5.4901   -1.3944   -4.7706 C.2     1  UNL11       0.4383
     19 O          -6.2552   -1.9333   -5.6032 O.2     1  UNL11      -0.2116
     20 C          -4.4989   -0.5439   -5.2168 C.ar    1  UNL11       0.1004
     21 C          -4.3830   -0.2995   -6.5686 C.ar    1  UNL11      -0.0441
     22 C          -3.4092    0.5568   -7.0449 C.ar    1  UNL11      -0.0608
     23 C          -2.5718    1.1467   -6.1207 C.ar    1  UNL11      -0.0611
     24 C          -2.7023    0.8904   -4.7748 C.ar    1  UNL11      -0.0518
     25 C          -3.6591    0.0455   -4.2892 C.ar    1  UNL11       0.0192
     26 C          -1.6257   -1.7861   -1.7900 C.ar    1  UNL11      -0.0555
     27 C          -0.4716   -2.5282   -1.5481 C.ar    1  UNL11      -0.0254
     28 C           0.6558   -1.8990   -1.1424 C.ar    1  UNL11       0.1355
     29 F           1.7489   -2.6478   -0.9130 F       1  UNL11      -0.2047
     30 H          -1.9827    4.1999   -1.6625 H       1  UNL11       0.0279
     31 H          -2.4686    2.9008   -2.8419 H       1  UNL11       0.0279
     32 H          -1.7876    2.4183   -1.2436 H       1  UNL11       0.0279
     33 H          -0.7108    3.9808   -4.6806 H       1  UNL11       0.1060
     34 H           0.9787    3.3055    0.1762 H       1  UNL11       0.0528
     35 H          -0.0654    1.9074   -0.2384 H       1  UNL11       0.0528
     36 H           2.8910    1.9924   -0.0525 H       1  UNL11       0.1494
     37 H          -0.4603    1.2512   -1.0723 H       1  UNL11       0.0629
     38 H          -2.6057    1.4637   -2.0603 H       1  UNL11       0.0379
     39 H          -3.4350    0.3957   -0.9375 H       1  UNL11       0.0379
     40 H          -6.3220   -2.2354   -3.1164 H       1  UNL11       0.4829
     41 H          -5.0568   -0.7788   -7.2694 H       1  UNL11       0.0627
     42 H          -3.3411    0.7302   -8.1139 H       1  UNL11       0.0618
     43 H          -1.7999    1.8217   -6.4608 H       1  UNL11       0.0618
     44 H          -2.0479    1.3765   -4.1030 H       1  UNL11       0.0624
     45 H          -2.4788   -2.3593   -2.1189 H       1  UNL11       0.0621
     46 H          -0.4919   -3.6215   -1.6903 H       1  UNL11       0.0646
@<TRIPOS>BOND
     1     1     2    1
     2     1    30    1
     3     1    31    1
     4     1    32    1
     5     2     3   ar
     6     3     4   ar
     7     3    33    1
     8     4     5   ar
     9     5     6   ar
    10     6     7    1
    11     6     2   ar
    12     7     8    1
    13     7    34    1
    14     7    35    1
    15     8     9   am
    16     8    36    1
    17     9    10    2
    18     9    11    1
    19    11    12   ar
    20    12    13   ar
    21    12    37    1
    22    13    14    1
    23    13    26   ar
    24    14    15    1
    25    14    38    1
    26    14    39    1
    27    15    16    2
    28    16    17    1
    29    17    18   am
    30    17    40    1
    31    18    19    2
    32    18    20    1
    33    20    21   ar
    34    21    22   ar
    35    21    41    1
    36    22    23   ar
    37    22    42    1
    38    23    24   ar
    39    23    43    1
    40    24    25   ar
    41    24    44    1
    42    25    15    1
    43    25    20   ar
    44    26    27   ar
    45    26    45    1
    46    27    28   ar
    47    27    46    1
    48    28    29    1
    49    28    11   ar
@<TRIPOS>MOLECULE
*****
 46 49 0 0 0
SMALL
GASTEIGER

@<TRIPOS>ATOM
      1 C           3.1546    3.4577    0.4617 C.3     1  UNL11      -0.0349
      2 C           2.2449    4.2600   -0.3932 C.ar    1  UNL11       0.0129
      3 C           2.0660    5.6483   -0.3535 C.ar    1  UNL11       0.1274
      4 O           1.1785    5.9100   -1.2754 O.2     1  UNL11      -0.3624
      5 N           0.7855    4.8201   -1.8876 N.ar    1  UNL11      -0.0815
      6 C           1.4235    3.7561   -1.3728 C.ar    1  UNL11       0.1034
      7 C           1.3229    2.3389   -1.7218 C.3     1  UNL11       0.0578
      8 N           2.2147    1.5245   -0.8656 N.am    1  UNL11      -0.3056
      9 C           1.8897    0.2012   -0.5336 C.2     1  UNL11       0.2472
     10 O           2.7250   -0.4001    0.2215 O.2     1  UNL11      -0.2701
     11 C           0.7140   -0.5429   -0.9562 C.ar    1  UNL11       0.0721
     12 C          -0.4722    0.1628   -1.2116 C.ar    1  UNL11      -0.0433
     13 C          -1.6448   -0.4233   -1.6247 C.ar    1  UNL11      -0.0405
     14 C          -2.8626    0.3959   -1.9028 C.3     1  UNL11       0.0211
     15 C          -3.3390    1.1765   -0.7610 C.2     1  UNL11       0.1192
     16 N          -3.4078    2.5449   -0.8550 N.2     1  UNL11      -0.0073
     17 N          -3.7917    3.3108    0.1466 N.am    1  UNL11      -0.0356
     18 C          -4.1542    2.8597    1.3522 C.2     1  UNL11       0.4383
     19 O          -4.5179    3.5895    2.3030 O.2     1  UNL11      -0.2116
     20 C          -4.1137    1.4914    1.5291 C.ar    1  UNL11       0.1004
     21 C          -4.4862    0.9610    2.7458 C.ar    1  UNL11      -0.0441
     22 C          -4.4684   -0.4052    2.9496 C.ar    1  UNL11      -0.0608
     23 C          -4.0675   -1.2014    1.8966 C.ar    1  UNL11      -0.0611
     24 C          -3.6987   -0.6539    0.6891 C.ar    1  UNL11      -0.0518
     25 C          -3.7100    0.6946    0.4731 C.ar    1  UNL11       0.0192
     26 C          -1.6257   -1.7861   -1.7900 C.ar    1  UNL11      -0.0555
     27 C          -0.4716   -2.5282   -1.5481 C.ar    1  UNL11      -0.0254
     28 C           0.6558   -1.8990   -1.1424 C.ar    1  UNL11       0.1355
     29 F           1.7489   -2.6478   -0.9130 F       1  UNL11      -0.2047
     30 H           4.1541    3.4724   -0.0603 H       1  UNL11       0.0279
     31 H           3.2420    3.8983    1.4568 H       1  UNL11       0.0279
     32 H           2.7780    2.4120    0.5476 H       1  UNL11       0.0279
     33 H           2.5763    6.3260    0.3167 H       1  UNL11       0.1060
     34 H           0.3031    1.9184   -1.5211 H       1  UNL11       0.0528
     35 H           1.5852    2.1051   -2.7611 H       1  UNL11       0.0528
     36 H           3.0931    1.9314   -0.5074 H       1  UNL11       0.1494
     37 H          -0.4603    1.2512   -1.0723 H       1  UNL11       0.0629
     38 H          -3.6528   -0.2069   -2.3960 H       1  UNL11       0.0379
     39 H          -2.5440    1.1234   -2.6957 H       1  UNL11       0.0379
     40 H          -3.8271    4.3622    0.0213 H       1  UNL11       0.4829
     41 H          -4.7965    1.6138    3.5536 H       1  UNL11       0.0627
     42 H          -4.7665   -0.7947    3.9175 H       1  UNL11       0.0618
     43 H          -4.0428   -2.2740    2.0235 H       1  UNL11       0.0618
     44 H          -3.4130   -1.3038   -0.0932 H       1  UNL11       0.0624
     45 H          -2.4788   -2.3593   -2.1189 H       1  UNL11       0.0621
     46 H          -0.4919   -3.6215   -1.6903 H       1  UNL11       0.0646
@<TRIPOS>BOND
     1     1     2    1
     2     1    30    1
     3     1    31    1
     4     1    32    1
     5     2     3   ar
     6     3     4   ar
     7     3    33    1
     8     4     5   ar
     9     5     6   ar
    10     6     7    1
    11     6     2   ar
    12     7     8    1
    13     7    34    1
    14     7    35    1
    15     8     9   am
    16     8    36    1
    17     9    10    2
    18     9    11    1
    19    11    12   ar
    20    12    13   ar
    21    12    37    1
    22    13    14    1
    23    13    26   ar
    24    14    15    1
    25    14    38    1
    26    14    39    1
    27    15    16    2
    28    16    17    1
    29    17    18   am
    30    17    40    1
    31    18    19    2
    32    18    20    1
    33    20    21   ar
    34    21    22   ar
    35    21    41    1
    36    22    23   ar
    37    22    42    1
    38    23    24   ar
    39    23    43    1
    40    24    25   ar
    41    24    44    1
    42    25    15    1
    43    25    20   ar
    44    26    27   ar
    45    26    45    1
    46    27    28   ar
    47    27    46    1
    48    28    29    1
    49    28    11   ar
@<TRIPOS>MOLECULE
*****
 46 49 0 0 0
SMALL
GASTEIGER

@<TRIPOS>ATOM
      1 C           1.5910    0.7730    3.2582 C.3     1  UNL11      -0.0349
      2 C           1.2868    2.2121    3.0622 C.ar    1  UNL11       0.0129
      3 C           1.3711    3.2246    4.0258 C.ar    1  UNL11       0.1274
      4 O           1.0131    4.3197    3.4103 O.2     1  UNL11      -0.3624
      5 N           0.7135    4.0898    2.1555 N.ar    1  UNL11      -0.0815
      6 C           0.8683    2.7834    1.8846 C.ar    1  UNL11       0.1034
      7 C           0.6582    2.0498    0.6364 C.3     1  UNL11       0.0578
      8 N           1.9126    1.4001    0.1937 N.am    1  UNL11      -0.3056
      9 C           1.8897    0.2012   -0.5336 C.2     1  UNL11       0.2472
     10 O           3.0310   -0.2750   -0.8500 O.2     1  UNL11      -0.2701
     11 C           0.7140   -0.5429   -0.9562 C.ar    1  UNL11       0.0721
     12 C          -0.4722    0.1628   -1.2116 C.ar    1  UNL11      -0.0433
     13 C          -1.6448   -0.4233   -1.6247 C.ar    1  UNL11      -0.0405
     14 C          -2.8626    0.3959   -1.9028 C.3     1  UNL11       0.0211
     15 C          -4.0310   -0.3805   -2.3175 C.2     1  UNL11       0.1192
     16 N          -4.6030   -0.1445   -3.5436 N.2     1  UNL11      -0.0073
     17 N          -5.6780   -0.7806   -3.9641 N.am    1  UNL11      -0.0356
     18 C          -6.3305   -1.7146   -3.2638 C.2     1  UNL11       0.4383
     19 O          -7.3526   -2.3174   -3.6651 O.2     1  UNL11      -0.2116
     20 C          -5.8177   -2.0119   -2.0174 C.ar    1  UNL11       0.1004
     21 C          -6.4373   -2.9744   -1.2491 C.ar    1  UNL11      -0.0441
     22 C          -5.9404   -3.3031   -0.0028 C.ar    1  UNL11      -0.0608
     23 C          -4.8138   -2.6351    0.4306 C.ar    1  UNL11      -0.0611
     24 C          -4.2089   -1.6768   -0.3502 C.ar    1  UNL11      -0.0518
     25 C          -4.6891   -1.3403   -1.5836 C.ar    1  UNL11       0.0192
     26 C          -1.6257   -1.7861   -1.7900 C.ar    1  UNL11      -0.0555
     27 C          -0.4716   -2.5282   -1.5481 C.ar    1  UNL11      -0.0254
     28 C           0.6558   -1.8990   -1.1424 C.ar    1  UNL11       0.1355
     29 F           1.7489   -2.6478   -0.9130 F       1  UNL11      -0.2047
     30 H           2.7004    0.6702    3.0834 H       1  UNL11       0.0279
     31 H           1.3380    0.4568    4.2722 H       1  UNL11       0.0279
     32 H           1.0243    0.1569    2.5221 H       1  UNL11       0.0279
     33 H           1.6738    3.0860    5.0544 H       1  UNL11       0.1060
     34 H          -0.0575    1.1950    0.7557 H       1  UNL11       0.0528
     35 H           0.3104    2.6660   -0.2021 H       1  UNL11       0.0528
     36 H           2.8217    1.8344    0.4184 H       1  UNL11       0.1494
     37 H          -0.4603    1.2512   -1.0723 H       1  UNL11       0.0629
     38 H          -2.6319    1.2516   -2.5703 H       1  UNL11       0.0379
     39 H          -3.1133    0.8793   -0.9215 H       1  UNL11       0.0379
     40 H          -6.0796   -0.5606   -4.9195 H       1  UNL11       0.4829
     41 H          -7.3214   -3.4814   -1.6184 H       1  UNL11       0.0627
     42 H          -6.4488   -4.0642    0.5800 H       1  UNL11       0.0618
     43 H          -4.4000   -2.8691    1.4007 H       1  UNL11       0.0618
     44 H          -3.3395   -1.2020    0.0170 H       1  UNL11       0.0624
     45 H          -2.4788   -2.3593   -2.1189 H       1  UNL11       0.0621
     46 H          -0.4919   -3.6215   -1.6903 H       1  UNL11       0.0646
@<TRIPOS>BOND
     1     1     2    1
     2     1    30    1
     3     1    31    1
     4     1    32    1
     5     2     3   ar
     6     3     4   ar
     7     3    33    1
     8     4     5   ar
     9     5     6   ar
    10     6     7    1
    11     6     2   ar
    12     7     8    1
    13     7    34    1
    14     7    35    1
    15     8     9   am
    16     8    36    1
    17     9    10    2
    18     9    11    1
    19    11    12   ar
    20    12    13   ar
    21    12    37    1
    22    13    14    1
    23    13    26   ar
    24    14    15    1
    25    14    38    1
    26    14    39    1
    27    15    16    2
    28    16    17    1
    29    17    18   am
    30    17    40    1
    31    18    19    2
    32    18    20    1
    33    20    21   ar
    34    21    22   ar
    35    21    41    1
    36    22    23   ar
    37    22    42    1
    38    23    24   ar
    39    23    43    1
    40    24    25   ar
    41    24    44    1
    42    25    15    1
    43    25    20   ar
    44    26    27   ar
    45    26    45    1
    46    27    28   ar
    47    27    46    1
    48    28    29    1
    49    28    11   ar
@<TRIPOS>MOLECULE
*****
 46 49 0 0 0
SMALL
GASTEIGER

@<TRIPOS>ATOM
      1 C           3.1973   -1.6506    1.4591 C.3     1  UNL11      -0.0349
      2 C           2.8913   -2.6835    0.4385 C.ar    1  UNL11       0.0129
      3 C           2.3773   -3.9649    0.6719 C.ar    1  UNL11       0.1274
      4 O           2.2710   -4.5161   -0.5076 O.2     1  UNL11      -0.3624
      5 N           2.6686   -3.7033   -1.4555 N.ar    1  UNL11      -0.0815
      6 C           3.0680   -2.5396   -0.9167 C.ar    1  UNL11       0.1034
      7 C           3.5897   -1.3341   -1.5610 C.3     1  UNL11       0.0578
      8 N           3.2302   -0.1274   -0.7825 N.am    1  UNL11      -0.3056
      9 C           1.8897    0.2012   -0.5336 C.2     1  UNL11       0.2472
     10 O           1.6981    1.2710    0.1360 O.2     1  UNL11      -0.2701
     11 C           0.7140   -0.5429   -0.9562 C.ar    1  UNL11       0.0721
     12 C          -0.4722    0.1628   -1.2116 C.ar    1  UNL11      -0.0433
     13 C          -1.6448   -0.4233   -1.6247 C.ar    1  UNL11      -0.0405
     14 C          -2.8626    0.3959   -1.9028 C.3     1  UNL11       0.0211
     15 C          -3.7421   -0.1595   -2.9313 C.2     1  UNL11       0.1192
     16 N          -3.2089   -0.9216   -3.9418 N.2     1  UNL11      -0.0073
     17 N          -3.9376   -1.4209   -4.9200 N.am    1  UNL11      -0.0356
     18 C          -5.2580   -1.2509   -5.0466 C.2     1  UNL11       0.4383
     19 O          -5.9485   -1.7257   -5.9776 O.2     1  UNL11      -0.2116
     20 C          -5.8724   -0.4956   -4.0683 C.ar    1  UNL11       0.1004
     21 C          -7.2343   -0.2921   -4.1343 C.ar    1  UNL11      -0.0441
     22 C          -7.8800    0.4486   -3.1633 C.ar    1  UNL11      -0.0608
     23 C          -7.1118    0.9667   -2.1411 C.ar    1  UNL11      -0.0611
     24 C          -5.7531    0.7534   -2.0920 C.ar    1  UNL11      -0.0518
     25 C          -5.1008    0.0245   -3.0450 C.ar    1  UNL11       0.0192
     26 C          -1.6257   -1.7861   -1.7900 C.ar    1  UNL11      -0.0555
     27 C          -0.4716   -2.5282   -1.5481 C.ar    1  UNL11      -0.0254
     28 C           0.6558   -1.8990   -1.1424 C.ar    1  UNL11       0.1355
     29 F           1.7489   -2.6478   -0.9130 F       1  UNL11      -0.2047
     30 H           2.2314   -1.0930    1.6263 H       1  UNL11       0.0279
     31 H           3.5329   -2.1116    2.3901 H       1  UNL11       0.0279
     32 H           3.9840   -0.9576    1.0802 H       1  UNL11       0.0279
     33 H           2.1329   -4.3739    1.6424 H       1  UNL11       0.1060
     34 H           4.7103   -1.3114   -1.5865 H       1  UNL11       0.0528
     35 H           3.2259   -1.1691   -2.5828 H       1  UNL11       0.0528
     36 H           3.9748    0.4838   -0.4115 H       1  UNL11       0.1494
     37 H          -0.4603    1.2512   -1.0723 H       1  UNL11       0.0629
     38 H          -2.6057    1.4637   -2.0603 H       1  UNL11       0.0379
     39 H          -3.4350    0.3957   -0.9375 H       1  UNL11       0.0379
     40 H          -3.4761   -2.0026   -5.6757 H       1  UNL11       0.4829
     41 H          -7.8099   -0.7129   -4.9507 H       1  UNL11       0.0627
     42 H          -8.9527    0.5927   -3.2409 H       1  UNL11       0.0618
     43 H          -7.5866    1.5504   -1.3658 H       1  UNL11       0.0618
     44 H          -5.2081    1.1573   -1.2822 H       1  UNL11       0.0624
     45 H          -2.4788   -2.3593   -2.1189 H       1  UNL11       0.0621
     46 H          -0.4919   -3.6215   -1.6903 H       1  UNL11       0.0646
@<TRIPOS>BOND
     1     1     2    1
     2     1    30    1
     3     1    31    1
     4     1    32    1
     5     2     3   ar
     6     3     4   ar
     7     3    33    1
     8     4     5   ar
     9     5     6   ar
    10     6     7    1
    11     6     2   ar
    12     7     8    1
    13     7    34    1
    14     7    35    1
    15     8     9   am
    16     8    36    1
    17     9    10    2
    18     9    11    1
    19    11    12   ar
    20    12    13   ar
    21    12    37    1
    22    13    14    1
    23    13    26   ar
    24    14    15    1
    25    14    38    1
    26    14    39    1
    27    15    16    2
    28    16    17    1
    29    17    18   am
    30    17    40    1
    31    18    19    2
    32    18    20    1
    33    20    21   ar
    34    21    22   ar
    35    21    41    1
    36    22    23   ar
    37    22    42    1
    38    23    24   ar
    39    23    43    1
    40    24    25   ar
    41    24    44    1
    42    25    15    1
    43    25    20   ar
    44    26    27   ar
    45    26    45    1
    46    27    28   ar
    47    27    46    1
    48    28    29    1
    49    28    11   ar
@<TRIPOS>MOLECULE
*****
 46 49 0 0 0
SMALL
GASTEIGER

@<TRIPOS>ATOM
      1 C           1.6392   -3.2936   -2.8766 C.3     1  UNL11      -0.0349
      2 C           2.1926   -3.4201   -1.5055 C.ar    1  UNL11       0.0129
      3 C           1.9252   -4.4413   -0.5855 C.ar    1  UNL11       0.1274
      4 O           2.6242   -4.1428    0.4768 O.2     1  UNL11      -0.3624
      5 N           3.3027   -3.0342    0.3099 N.ar    1  UNL11      -0.0815
      6 C           3.0680   -2.5396   -0.9167 C.ar    1  UNL11       0.1034
      7 C           3.5897   -1.3341   -1.5610 C.3     1  UNL11       0.0578
      8 N           3.2302   -0.1274   -0.7825 N.am    1  UNL11      -0.3056
      9 C           1.8897    0.2012   -0.5336 C.2     1  UNL11       0.2472
     10 O           1.6981    1.2710    0.1360 O.2     1  UNL11      -0.2701
     11 C           0.7140   -0.5429   -0.9562 C.ar    1  UNL11       0.0721
     12 C          -0.4722    0.1628   -1.2116 C.ar    1  UNL11      -0.0433
     13 C          -1.6448   -0.4233   -1.6247 C.ar    1  UNL11      -0.0405
     14 C          -2.8626    0.3959   -1.9028 C.3     1  UNL11       0.0211
     15 C          -3.7421   -0.1595   -2.9313 C.2     1  UNL11       0.1192
     16 N          -3.2089   -0.9216   -3.9418 N.2     1  UNL11      -0.0073
     17 N          -3.9376   -1.4209   -4.9200 N.am    1  UNL11      -0.0356
     18 C          -5.2580   -1.2509   -5.0466 C.2     1  UNL11       0.4383
     19 O          -5.9485   -1.7257   -5.9776 O.2     1  UNL11      -0.2116
     20 C          -5.8724   -0.4956   -4.0683 C.ar    1  UNL11       0.1004
     21 C          -7.2343   -0.2921   -4.1343 C.ar    1  UNL11      -0.0441
     22 C          -7.8800    0.4486   -3.1633 C.ar    1  UNL11      -0.0608
     23 C          -7.1118    0.9667   -2.1411 C.ar    1  UNL11      -0.0611
     24 C          -5.7531    0.7534   -2.0920 C.ar    1  UNL11      -0.0518
     25 C          -5.1008    0.0245   -3.0450 C.ar    1  UNL11       0.0192
     26 C          -1.6257   -1.7861   -1.7900 C.ar    1  UNL11      -0.0555
     27 C          -0.4716   -2.5282   -1.5481 C.ar    1  UNL11      -0.0254
     28 C           0.6558   -1.8990   -1.1424 C.ar    1  UNL11       0.1355
     29 F           1.7489   -2.6478   -0.9130 F       1  UNL11      -0.2047
     30 H           2.3266   -3.8946   -3.5385 H       1  UNL11       0.0279
     31 H           0.6244   -3.6935   -2.9245 H       1  UNL11       0.0279
     32 H           1.6351   -2.2244   -3.1919 H       1  UNL11       0.0279
     33 H           1.2698   -5.2836   -0.7585 H       1  UNL11       0.1060
     34 H           4.7103   -1.3114   -1.5865 H       1  UNL11       0.0528
     35 H           3.2259   -1.1691   -2.5828 H       1  UNL11       0.0528
     36 H           3.9748    0.4838   -0.4115 H       1  UNL11       0.1494
     37 H          -0.4603    1.2512   -1.0723 H       1  UNL11       0.0629
     38 H          -2.6057    1.4637   -2.0603 H       1  UNL11       0.0379
     39 H          -3.4350    0.3957   -0.9375 H       1  UNL11       0.0379
     40 H          -3.4761   -2.0026   -5.6757 H       1  UNL11       0.4829
     41 H          -7.8099   -0.7129   -4.9507 H       1  UNL11       0.0627
     42 H          -8.9527    0.5927   -3.2409 H       1  UNL11       0.0618
     43 H          -7.5866    1.5504   -1.3658 H       1  UNL11       0.0618
     44 H          -5.2081    1.1573   -1.2822 H       1  UNL11       0.0624
     45 H          -2.4788   -2.3593   -2.1189 H       1  UNL11       0.0621
     46 H          -0.4919   -3.6215   -1.6903 H       1  UNL11       0.0646
@<TRIPOS>BOND
     1     1     2    1
     2     1    30    1
     3     1    31    1
     4     1    32    1
     5     2     3   ar
     6     3     4   ar
     7     3    33    1
     8     4     5   ar
     9     5     6   ar
    10     6     7    1
    11     6     2   ar
    12     7     8    1
    13     7    34    1
    14     7    35    1
    15     8     9   am
    16     8    36    1
    17     9    10    2
    18     9    11    1
    19    11    12   ar
    20    12    13   ar
    21    12    37    1
    22    13    14    1
    23    13    26   ar
    24    14    15    1
    25    14    38    1
    26    14    39    1
    27    15    16    2
    28    16    17    1
    29    17    18   am
    30    17    40    1
    31    18    19    2
    32    18    20    1
    33    20    21   ar
    34    21    22   ar
    35    21    41    1
    36    22    23   ar
    37    22    42    1
    38    23    24   ar
    39    23    43    1
    40    24    25   ar
    41    24    44    1
    42    25    15    1
    43    25    20   ar
    44    26    27   ar
    45    26    45    1
    46    27    28   ar
    47    27    46    1
    48    28    29    1
    49    28    11   ar
@<TRIPOS>MOLECULE
*****
 46 49 0 0 0
SMALL
GASTEIGER

@<TRIPOS>ATOM
      1 C           3.5990    3.6099   -1.1533 C.3     1  UNL11      -0.0349
      2 C           2.3496    3.9712   -1.8678 C.ar    1  UNL11       0.0129
      3 C           2.2223    4.8816   -2.9241 C.ar    1  UNL11       0.1274
      4 O           0.9532    4.8788   -3.2332 O.2     1  UNL11      -0.3624
      5 N           0.2750    4.0549   -2.4727 N.ar    1  UNL11      -0.0815
      6 C           1.1030    3.4595   -1.5987 C.ar    1  UNL11       0.1034
      7 C           0.8197    2.4722   -0.5568 C.3     1  UNL11       0.0578
      8 N           1.9871    1.5872   -0.3431 N.am    1  UNL11      -0.3056
      9 C           1.8897    0.2012   -0.5336 C.2     1  UNL11       0.2472
     10 O           2.9554   -0.4640   -0.3069 O.2     1  UNL11      -0.2701
     11 C           0.7140   -0.5429   -0.9562 C.ar    1  UNL11       0.0721
     12 C          -0.4722    0.1628   -1.2116 C.ar    1  UNL11      -0.0433
     13 C          -1.6448   -0.4233   -1.6247 C.ar    1  UNL11      -0.0405
     14 C          -2.8626    0.3959   -1.9028 C.3     1  UNL11       0.0211
     15 C          -2.9595    1.6219   -1.1107 C.2     1  UNL11       0.1192
     16 N          -3.6045    1.5982    0.1016 N.2     1  UNL11      -0.0073
     17 N          -3.7606    2.6730    0.8483 N.am    1  UNL11      -0.0356
     18 C          -3.3196    3.8933    0.5247 C.2     1  UNL11       0.4383
     19 O          -3.4698    4.9137    1.2355 O.2     1  UNL11      -0.2116
     20 C          -2.6576    4.0028   -0.6815 C.ar    1  UNL11       0.1004
     21 C          -2.1677    5.2318   -1.0687 C.ar    1  UNL11      -0.0441
     22 C          -1.4898    5.3709   -2.2644 C.ar    1  UNL11      -0.0608
     23 C          -1.3280    4.2416   -3.0403 C.ar    1  UNL11      -0.0611
     24 C          -1.8245    3.0229   -2.6375 C.ar    1  UNL11      -0.0518
     25 C          -2.4976    2.8702   -1.4591 C.ar    1  UNL11       0.0192
     26 C          -1.6257   -1.7861   -1.7900 C.ar    1  UNL11      -0.0555
     27 C          -0.4716   -2.5282   -1.5481 C.ar    1  UNL11      -0.0254
     28 C           0.6558   -1.8990   -1.1424 C.ar    1  UNL11       0.1355
     29 F           1.7489   -2.6478   -0.9130 F       1  UNL11      -0.2047
     30 H           4.0645    2.7785   -1.7565 H       1  UNL11       0.0279
     31 H           4.2775    4.4637   -1.1010 H       1  UNL11       0.0279
     32 H           3.3635    3.2558   -0.1229 H       1  UNL11       0.0279
     33 H           3.0318    5.4483   -3.3627 H       1  UNL11       0.1060
     34 H           0.6541    2.9427    0.4473 H       1  UNL11       0.0528
     35 H          -0.0358    1.8186   -0.7680 H       1  UNL11       0.0528
     36 H           2.8910    1.9924   -0.0525 H       1  UNL11       0.1494
     37 H          -0.4603    1.2512   -1.0723 H       1  UNL11       0.0629
     38 H          -3.7820   -0.2249   -1.8838 H       1  UNL11       0.0379
     39 H          -2.7644    0.6996   -2.9787 H       1  UNL11       0.0379
     40 H          -4.2666    2.6000    1.7762 H       1  UNL11       0.4829
     41 H          -2.3113    6.1003   -0.4362 H       1  UNL11       0.0627
     42 H          -1.1155    6.3503   -2.5437 H       1  UNL11       0.0618
     43 H          -0.8022    4.3167   -3.9810 H       1  UNL11       0.0618
     44 H          -1.6636    2.1829   -3.2575 H       1  UNL11       0.0624
     45 H          -2.4788   -2.3593   -2.1189 H       1  UNL11       0.0621
     46 H          -0.4919   -3.6215   -1.6903 H       1  UNL11       0.0646
@<TRIPOS>BOND
     1     1     2    1
     2     1    30    1
     3     1    31    1
     4     1    32    1
     5     2     3   ar
     6     3     4   ar
     7     3    33    1
     8     4     5   ar
     9     5     6   ar
    10     6     7    1
    11     6     2   ar
    12     7     8    1
    13     7    34    1
    14     7    35    1
    15     8     9   am
    16     8    36    1
    17     9    10    2
    18     9    11    1
    19    11    12   ar
    20    12    13   ar
    21    12    37    1
    22    13    14    1
    23    13    26   ar
    24    14    15    1
    25    14    38    1
    26    14    39    1
    27    15    16    2
    28    16    17    1
    29    17    18   am
    30    17    40    1
    31    18    19    2
    32    18    20    1
    33    20    21   ar
    34    21    22   ar
    35    21    41    1
    36    22    23   ar
    37    22    42    1
    38    23    24   ar
    39    23    43    1
    40    24    25   ar
    41    24    44    1
    42    25    15    1
    43    25    20   ar
    44    26    27   ar
    45    26    45    1
    46    27    28   ar
    47    27    46    1
    48    28    29    1
    49    28    11   ar
@<TRIPOS>MOLECULE
*****
 46 49 0 0 0
SMALL
GASTEIGER

@<TRIPOS>ATOM
      1 C           6.2925    2.7189    0.7112 C.3     1  UNL11      -0.0349
      2 C           5.3342    2.5143   -0.4032 C.ar    1  UNL11       0.0129
      3 C           5.2795    3.2337   -1.6033 C.ar    1  UNL11       0.1274
      4 O           4.2879    2.7125   -2.2750 O.2     1  UNL11      -0.3624
      5 N           3.7176    1.7372   -1.6112 N.ar    1  UNL11      -0.0815
      6 C           4.3352    1.5711   -0.4301 C.ar    1  UNL11       0.1034
      7 C           4.0654    0.6188    0.6473 C.3     1  UNL11       0.0578
      8 N           2.9216   -0.2544    0.2997 N.am    1  UNL11      -0.3056
      9 C           1.8897    0.2012   -0.5336 C.2     1  UNL11       0.2472
     10 O           2.0108    1.3988   -0.9587 O.2     1  UNL11      -0.2701
     11 C           0.7140   -0.5429   -0.9562 C.ar    1  UNL11       0.0721
     12 C          -0.4722    0.1628   -1.2116 C.ar    1  UNL11      -0.0433
     13 C          -1.6448   -0.4233   -1.6247 C.ar    1  UNL11      -0.0405
     14 C          -2.8626    0.3959   -1.9028 C.3     1  UNL11       0.0211
     15 C          -3.7393    0.5860   -0.7473 C.2     1  UNL11       0.1192
     16 N          -4.4857    1.7342   -0.6427 N.2     1  UNL11      -0.0073
     17 N          -5.2666    1.9864    0.3887 N.am    1  UNL11      -0.0356
     18 C          -5.4255    1.1728    1.4381 C.2     1  UNL11       0.4383
     19 O          -6.1677    1.4148    2.4176 O.2     1  UNL11      -0.2116
     20 C          -4.7087   -0.0064    1.4097 C.ar    1  UNL11       0.1004
     21 C          -4.8368   -0.8946    2.4563 C.ar    1  UNL11      -0.0441
     22 C          -4.1423   -2.0888    2.4509 C.ar    1  UNL11      -0.0608
     23 C          -3.3282   -2.3476    1.3675 C.ar    1  UNL11      -0.0611
     24 C          -3.2126   -1.4486    0.3319 C.ar    1  UNL11      -0.0518
     25 C          -3.8917   -0.2638    0.3238 C.ar    1  UNL11       0.0192
     26 C          -1.6257   -1.7861   -1.7900 C.ar    1  UNL11      -0.0555
     27 C          -0.4716   -2.5282   -1.5481 C.ar    1  UNL11      -0.0254
     28 C           0.6558   -1.8990   -1.1424 C.ar    1  UNL11       0.1355
     29 F           1.7489   -2.6478   -0.9130 F       1  UNL11      -0.2047
     30 H           7.1995    2.1020    0.4493 H       1  UNL11       0.0279
     31 H           6.5656    3.7722    0.8005 H       1  UNL11       0.0279
     32 H           5.8475    2.3655    1.6702 H       1  UNL11       0.0279
     33 H           5.9398    4.0447   -1.8774 H       1  UNL11       0.1060
     34 H           4.9110   -0.0998    0.8073 H       1  UNL11       0.0528
     35 H           3.8270    1.0793    1.6142 H       1  UNL11       0.0528
     36 H           2.8799   -1.2166    0.6713 H       1  UNL11       0.1494
     37 H          -0.4603    1.2512   -1.0723 H       1  UNL11       0.0629
     38 H          -3.3895    0.0429   -2.8132 H       1  UNL11       0.0379
     39 H          -2.4687    1.4057   -2.1936 H       1  UNL11       0.0379
     40 H          -5.8217    2.8883    0.4202 H       1  UNL11       0.4829
     41 H          -5.4850   -0.6617    3.2933 H       1  UNL11       0.0627
     42 H          -4.2622   -2.7686    3.2881 H       1  UNL11       0.0618
     43 H          -2.7717   -3.2729    1.3328 H       1  UNL11       0.0618
     44 H          -2.5887   -1.6964   -0.4837 H       1  UNL11       0.0624
     45 H          -2.4788   -2.3593   -2.1189 H       1  UNL11       0.0621
     46 H          -0.4919   -3.6215   -1.6903 H       1  UNL11       0.0646
@<TRIPOS>BOND
     1     1     2    1
     2     1    30    1
     3     1    31    1
     4     1    32    1
     5     2     3   ar
     6     3     4   ar
     7     3    33    1
     8     4     5   ar
     9     5     6   ar
    10     6     7    1
    11     6     2   ar
    12     7     8    1
    13     7    34    1
    14     7    35    1
    15     8     9   am
    16     8    36    1
    17     9    10    2
    18     9    11    1
    19    11    12   ar
    20    12    13   ar
    21    12    37    1
    22    13    14    1
    23    13    26   ar
    24    14    15    1
    25    14    38    1
    26    14    39    1
    27    15    16    2
    28    16    17    1
    29    17    18   am
    30    17    40    1
    31    18    19    2
    32    18    20    1
    33    20    21   ar
    34    21    22   ar
    35    21    41    1
    36    22    23   ar
    37    22    42    1
    38    23    24   ar
    39    23    43    1
    40    24    25   ar
    41    24    44    1
    42    25    15    1
    43    25    20   ar
    44    26    27   ar
    45    26    45    1
    46    27    28   ar
    47    27    46    1
    48    28    29    1
    49    28    11   ar
@<TRIPOS>MOLECULE
*****
 46 49 0 0 0
SMALL
GASTEIGER

@<TRIPOS>ATOM
      1 C           3.0470   -0.3377   -1.5897 C.3     1  UNL11      -0.0349
      2 C           4.3114    0.2905   -1.1328 C.ar    1  UNL11       0.0129
      3 C           5.6115   -0.1639   -1.3861 C.ar    1  UNL11       0.1274
      4 O           6.3998    0.6935   -0.7950 O.2     1  UNL11      -0.3624
      5 N           5.7186    1.6398   -0.1968 N.ar    1  UNL11      -0.0815
      6 C           4.4035    1.4348   -0.3775 C.ar    1  UNL11       0.1034
      7 C           3.2565    2.2116    0.0932 C.3     1  UNL11       0.0578
      8 N           1.9871    1.5872   -0.3431 N.am    1  UNL11      -0.3056
      9 C           1.8897    0.2012   -0.5336 C.2     1  UNL11       0.2472
     10 O           2.9554   -0.4640   -0.3069 O.2     1  UNL11      -0.2701
     11 C           0.7140   -0.5429   -0.9562 C.ar    1  UNL11       0.0721
     12 C          -0.4722    0.1628   -1.2116 C.ar    1  UNL11      -0.0433
     13 C          -1.6448   -0.4233   -1.6247 C.ar    1  UNL11      -0.0405
     14 C          -2.8626    0.3959   -1.9028 C.3     1  UNL11       0.0211
     15 C          -4.0310   -0.3805   -2.3175 C.2     1  UNL11       0.1192
     16 N          -4.9106   -0.8429   -1.3695 N.2     1  UNL11      -0.0073
     17 N          -5.9618   -1.5790   -1.6699 N.am    1  UNL11      -0.0356
     18 C          -6.2948   -1.9584   -2.9083 C.2     1  UNL11       0.4383
     19 O          -7.2939   -2.6587   -3.1914 O.2     1  UNL11      -0.2116
     20 C          -5.4600   -1.5330   -3.9218 C.ar    1  UNL11       0.1004
     21 C          -5.7537   -1.8804   -5.2232 C.ar    1  UNL11      -0.0441
     22 C          -4.9445   -1.4593   -6.2605 C.ar    1  UNL11      -0.0608
     23 C          -3.8469   -0.6874   -5.9396 C.ar    1  UNL11      -0.0611
     24 C          -3.5693   -0.3508   -4.6345 C.ar    1  UNL11      -0.0518
     25 C          -4.3591   -0.7606   -3.5985 C.ar    1  UNL11       0.0192
     26 C          -1.6257   -1.7861   -1.7900 C.ar    1  UNL11      -0.0555
     27 C          -0.4716   -2.5282   -1.5481 C.ar    1  UNL11      -0.0254
     28 C           0.6558   -1.8990   -1.1424 C.ar    1  UNL11       0.1355
     29 F           1.7489   -2.6478   -0.9130 F       1  UNL11      -0.2047
     30 H           2.8547    0.0802   -2.6193 H       1  UNL11       0.0279
     31 H           3.1473   -1.4239   -1.6360 H       1  UNL11       0.0279
     32 H           2.2133   -0.0682   -0.9004 H       1  UNL11       0.0279
     33 H           5.8659   -1.0460   -1.9571 H       1  UNL11       0.1060
     34 H           3.1768    2.2253    1.2114 H       1  UNL11       0.0528
     35 H           3.2334    3.2503   -0.2592 H       1  UNL11       0.0528
     36 H           1.1560    2.1769   -0.5078 H       1  UNL11       0.1494
     37 H          -0.4603    1.2512   -1.0723 H       1  UNL11       0.0629
     38 H          -2.6319    1.2516   -2.5703 H       1  UNL11       0.0379
     39 H          -3.1133    0.8793   -0.9215 H       1  UNL11       0.0379
     40 H          -6.6095   -1.9103   -0.8997 H       1  UNL11       0.4829
     41 H          -6.6240   -2.4883   -5.4424 H       1  UNL11       0.0627
     42 H          -5.1998   -1.7481   -7.2748 H       1  UNL11       0.0618
     43 H          -3.1942   -0.3418   -6.7280 H       1  UNL11       0.0618
     44 H          -2.7261    0.2546   -4.4381 H       1  UNL11       0.0624
     45 H          -2.4788   -2.3593   -2.1189 H       1  UNL11       0.0621
     46 H          -0.4919   -3.6215   -1.6903 H       1  UNL11       0.0646
@<TRIPOS>BOND
     1     1     2    1
     2     1    30    1
     3     1    31    1
     4     1    32    1
     5     2     3   ar
     6     3     4   ar
     7     3    33    1
     8     4     5   ar
     9     5     6   ar
    10     6     7    1
    11     6     2   ar
    12     7     8    1
    13     7    34    1
    14     7    35    1
    15     8     9   am
    16     8    36    1
    17     9    10    2
    18     9    11    1
    19    11    12   ar
    20    12    13   ar
    21    12    37    1
    22    13    14    1
    23    13    26   ar
    24    14    15    1
    25    14    38    1
    26    14    39    1
    27    15    16    2
    28    16    17    1
    29    17    18   am
    30    17    40    1
    31    18    19    2
    32    18    20    1
    33    20    21   ar
    34    21    22   ar
    35    21    41    1
    36    22    23   ar
    37    22    42    1
    38    23    24   ar
    39    23    43    1
    40    24    25   ar
    41    24    44    1
    42    25    15    1
    43    25    20   ar
    44    26    27   ar
    45    26    45    1
    46    27    28   ar
    47    27    46    1
    48    28    29    1
    49    28    11   ar
@<TRIPOS>MOLECULE
*****
 46 49 0 0 0
SMALL
GASTEIGER

@<TRIPOS>ATOM
      1 C          -1.0005    3.9085   -2.9518 C.3     1  UNL11      -0.0349
      2 C          -1.0364    3.1964   -1.6504 C.ar    1  UNL11       0.0129
      3 C          -2.1213    3.1175   -0.7687 C.ar    1  UNL11       0.1274
      4 O          -1.6999    2.3970    0.2360 O.2     1  UNL11      -0.3624
      5 N          -0.4568    2.0179    0.0678 N.ar    1  UNL11      -0.0815
      6 C           0.0075    2.4923   -1.0999 C.ar    1  UNL11       0.1034
      7 C           1.3229    2.3389   -1.7218 C.3     1  UNL11       0.0578
      8 N           2.2147    1.5245   -0.8656 N.am    1  UNL11      -0.3056
      9 C           1.8897    0.2012   -0.5336 C.2     1  UNL11       0.2472
     10 O           2.7250   -0.4001    0.2215 O.2     1  UNL11      -0.2701
     11 C           0.7140   -0.5429   -0.9562 C.ar    1  UNL11       0.0721
     12 C          -0.4722    0.1628   -1.2116 C.ar    1  UNL11      -0.0433
     13 C          -1.6448   -0.4233   -1.6247 C.ar    1  UNL11      -0.0405
     14 C          -2.8626    0.3959   -1.9028 C.3     1  UNL11       0.0211
     15 C          -4.0200    0.0578   -1.0745 C.2     1  UNL11       0.1192
     16 N          -3.9382    0.1840    0.2907 N.2     1  UNL11      -0.0073
     17 N          -4.9290   -0.1383    1.0979 N.am    1  UNL11      -0.0356
     18 C          -6.1111   -0.6174    0.6960 C.2     1  UNL11       0.4383
     19 O          -7.0512   -0.9238    1.4650 O.2     1  UNL11      -0.2116
     20 C          -6.2750   -0.7736   -0.6656 C.ar    1  UNL11       0.1004
     21 C          -7.4750   -1.2527   -1.1462 C.ar    1  UNL11      -0.0441
     22 C          -7.6740   -1.4081   -2.5044 C.ar    1  UNL11      -0.0608
     23 C          -6.6337   -1.0671   -3.3440 C.ar    1  UNL11      -0.0611
     24 C          -5.4425   -0.5907   -2.8459 C.ar    1  UNL11      -0.0518
     25 C          -5.2307   -0.4329   -1.5060 C.ar    1  UNL11       0.0192
     26 C          -1.6257   -1.7861   -1.7900 C.ar    1  UNL11      -0.0555
     27 C          -0.4716   -2.5282   -1.5481 C.ar    1  UNL11      -0.0254
     28 C           0.6558   -1.8990   -1.1424 C.ar    1  UNL11       0.1355
     29 F           1.7489   -2.6478   -0.9130 F       1  UNL11      -0.2047
     30 H          -1.3987    3.1753   -3.7106 H       1  UNL11       0.0279
     31 H          -1.6286    4.8011   -2.9239 H       1  UNL11       0.0279
     32 H           0.0468    4.1959   -3.2036 H       1  UNL11       0.0279
     33 H          -3.0893    3.5729   -0.9252 H       1  UNL11       0.1060
     34 H           1.2789    1.7647   -2.6838 H       1  UNL11       0.0528
     35 H           1.8486    3.2820   -1.9159 H       1  UNL11       0.0528
     36 H           3.0931    1.9314   -0.5074 H       1  UNL11       0.1494
     37 H          -0.4603    1.2512   -1.0723 H       1  UNL11       0.0629
     38 H          -3.0844    0.4369   -2.9892 H       1  UNL11       0.0379
     39 H          -2.5650    1.4477   -1.6484 H       1  UNL11       0.0379
     40 H          -4.8141   -0.0217    2.1446 H       1  UNL11       0.4829
     41 H          -8.2732   -1.5118   -0.4601 H       1  UNL11       0.0627
     42 H          -8.6285   -1.7875   -2.8542 H       1  UNL11       0.0618
     43 H          -6.7575   -1.1767   -4.4116 H       1  UNL11       0.0618
     44 H          -4.6795   -0.3285   -3.5278 H       1  UNL11       0.0624
     45 H          -2.4788   -2.3593   -2.1189 H       1  UNL11       0.0621
     46 H          -0.4919   -3.6215   -1.6903 H       1  UNL11       0.0646
@<TRIPOS>BOND
     1     1     2    1
     2     1    30    1
     3     1    31    1
     4     1    32    1
     5     2     3   ar
     6     3     4   ar
     7     3    33    1
     8     4     5   ar
     9     5     6   ar
    10     6     7    1
    11     6     2   ar
    12     7     8    1
    13     7    34    1
    14     7    35    1
    15     8     9   am
    16     8    36    1
    17     9    10    2
    18     9    11    1
    19    11    12   ar
    20    12    13   ar
    21    12    37    1
    22    13    14    1
    23    13    26   ar
    24    14    15    1
    25    14    38    1
    26    14    39    1
    27    15    16    2
    28    16    17    1
    29    17    18   am
    30    17    40    1
    31    18    19    2
    32    18    20    1
    33    20    21   ar
    34    21    22   ar
    35    21    41    1
    36    22    23   ar
    37    22    42    1
    38    23    24   ar
    39    23    43    1
    40    24    25   ar
    41    24    44    1
    42    25    15    1
    43    25    20   ar
    44    26    27   ar
    45    26    45    1
    46    27    28   ar
    47    27    46    1
    48    28    29    1
    49    28    11   ar
@<TRIPOS>MOLECULE
*****
 46 49 0 0 0
SMALL
GASTEIGER

@<TRIPOS>ATOM
      1 C           5.0393    4.6574    0.4223 C.3     1  UNL11      -0.0349
      2 C           4.6648    4.2732   -0.9613 C.ar    1  UNL11       0.0129
      3 C           4.9655    4.9742   -2.1355 C.ar    1  UNL11       0.1274
      4 O           4.4415    4.2706   -3.1033 O.2     1  UNL11      -0.3624
      5 N           3.8426    3.1977   -2.6477 N.ar    1  UNL11      -0.0815
      6 C           3.9528    3.1507   -1.3100 C.ar    1  UNL11       0.1034
      7 C           3.4531    2.1577   -0.3588 C.3     1  UNL11       0.0578
      8 N           2.2147    1.5245   -0.8656 N.am    1  UNL11      -0.3056
      9 C           1.8897    0.2012   -0.5336 C.2     1  UNL11       0.2472
     10 O           2.7250   -0.4001    0.2215 O.2     1  UNL11      -0.2701
     11 C           0.7140   -0.5429   -0.9562 C.ar    1  UNL11       0.0721
     12 C          -0.4722    0.1628   -1.2116 C.ar    1  UNL11      -0.0433
     13 C          -1.6448   -0.4233   -1.6247 C.ar    1  UNL11      -0.0405
     14 C          -2.8626    0.3959   -1.9028 C.3     1  UNL11       0.0211
     15 C          -2.9788    0.8545   -3.2871 C.2     1  UNL11       0.1192
     16 N          -3.6426    0.0792   -4.2060 N.2     1  UNL11      -0.0073
     17 N          -3.7521    0.4138   -5.4761 N.am    1  UNL11      -0.0356
     18 C          -3.2414    1.5259   -6.0153 C.2     1  UNL11       0.4383
     19 O          -3.3459    1.8416   -7.2230 O.2     1  UNL11      -0.2116
     20 C          -2.5578    2.3622   -5.1561 C.ar    1  UNL11       0.1004
     21 C          -2.0166    3.5313   -5.6469 C.ar    1  UNL11      -0.0441
     22 C          -1.3377    4.3950   -4.8093 C.ar    1  UNL11      -0.0608
     23 C          -1.2284    4.0399   -3.4806 C.ar    1  UNL11      -0.0611
     24 C          -1.7751    2.8684   -3.0087 C.ar    1  UNL11      -0.0518
     25 C          -2.4477    2.0042   -3.8247 C.ar    1  UNL11       0.0192
     26 C          -1.6257   -1.7861   -1.7900 C.ar    1  UNL11      -0.0555
     27 C          -0.4716   -2.5282   -1.5481 C.ar    1  UNL11      -0.0254
     28 C           0.6558   -1.8990   -1.1424 C.ar    1  UNL11       0.1355
     29 F           1.7489   -2.6478   -0.9130 F       1  UNL11      -0.2047
     30 H           6.0716    4.2342    0.5865 H       1  UNL11       0.0279
     31 H           5.0547    5.7434    0.5333 H       1  UNL11       0.0279
     32 H           4.3198    4.2172    1.1512 H       1  UNL11       0.0279
     33 H           5.5188    5.9017   -2.1863 H       1  UNL11       0.1060
     34 H           4.1586    1.2964   -0.2266 H       1  UNL11       0.0528
     35 H           3.2180    2.5565    0.6359 H       1  UNL11       0.0528
     36 H           1.5746    2.0626   -1.4709 H       1  UNL11       0.1494
     37 H          -0.4603    1.2512   -1.0723 H       1  UNL11       0.0629
     38 H          -2.9899    1.2015   -1.1506 H       1  UNL11       0.0379
     39 H          -3.7244   -0.2955   -1.7060 H       1  UNL11       0.0379
     40 H          -4.2753   -0.2206   -6.1441 H       1  UNL11       0.4829
     41 H          -2.1198    3.7818   -6.6965 H       1  UNL11       0.0627
     42 H          -0.9219    5.3078   -5.2232 H       1  UNL11       0.0618
     43 H          -0.7039    4.6939   -2.7994 H       1  UNL11       0.0618
     44 H          -1.6791    2.6453   -1.9806 H       1  UNL11       0.0624
     45 H          -2.4788   -2.3593   -2.1189 H       1  UNL11       0.0621
     46 H          -0.4919   -3.6215   -1.6903 H       1  UNL11       0.0646
@<TRIPOS>BOND
     1     1     2    1
     2     1    30    1
     3     1    31    1
     4     1    32    1
     5     2     3   ar
     6     3     4   ar
     7     3    33    1
     8     4     5   ar
     9     5     6   ar
    10     6     7    1
    11     6     2   ar
    12     7     8    1
    13     7    34    1
    14     7    35    1
    15     8     9   am
    16     8    36    1
    17     9    10    2
    18     9    11    1
    19    11    12   ar
    20    12    13   ar
    21    12    37    1
    22    13    14    1
    23    13    26   ar
    24    14    15    1
    25    14    38    1
    26    14    39    1
    27    15    16    2
    28    16    17    1
    29    17    18   am
    30    17    40    1
    31    18    19    2
    32    18    20    1
    33    20    21   ar
    34    21    22   ar
    35    21    41    1
    36    22    23   ar
    37    22    42    1
    38    23    24   ar
    39    23    43    1
    40    24    25   ar
    41    24    44    1
    42    25    15    1
    43    25    20   ar
    44    26    27   ar
    45    26    45    1
    46    27    28   ar
    47    27    46    1
    48    28    29    1
    49    28    11   ar
