@<TRIPOS>MOLECULE
*****
 55 59 0 0 0
SMALL
GASTEIGER

@<TRIPOS>ATOM
      1 O           1.1774   -1.1763   -1.8192 O.2     1  UNL11      -0.2699
      2 C           1.0344   -2.2581   -1.1629 C.2     1  UNL11       0.2495
      3 C          -0.2898   -2.5068   -0.6383 C.ar    1  UNL11       0.0723
      4 C          -1.4526   -2.0533   -1.2326 C.ar    1  UNL11      -0.0433
      5 C          -2.6998   -2.2999   -0.7200 C.ar    1  UNL11      -0.0405
      6 C          -3.9822   -1.8218   -1.3112 C.3     1  UNL11       0.0211
      7 C          -4.7597   -0.9511   -0.3915 C.2     1  UNL11       0.1192
      8 N          -5.5607    0.0287   -0.9305 N.2     1  UNL11      -0.0073
      9 N          -6.3112    0.8148   -0.1954 N.am    1  UNL11      -0.0356
     10 C          -6.3668    0.7369    1.1426 C.2     1  UNL11       0.4383
     11 O          -7.0793    1.4808    1.8522 O.2     1  UNL11      -0.2116
     12 C          -5.5789   -0.2351    1.7681 C.ar    1  UNL11       0.1004
     13 C          -5.5814   -0.3593    3.1363 C.ar    1  UNL11      -0.0441
     14 C          -4.7975   -1.3065    3.7541 C.ar    1  UNL11      -0.0608
     15 C          -4.0170   -2.1184    2.9593 C.ar    1  UNL11      -0.0611
     16 C          -3.9835   -2.0294    1.5883 C.ar    1  UNL11      -0.0518
     17 C          -4.7880   -1.0619    0.9822 C.ar    1  UNL11       0.0192
     18 C          -2.8265   -3.0465    0.4628 C.ar    1  UNL11      -0.0555
     19 C          -1.6833   -3.5058    1.0677 C.ar    1  UNL11      -0.0254
     20 C          -0.4343   -3.2365    0.5202 C.ar    1  UNL11       0.1355
     21 F           0.6403   -3.7151    1.1625 F       1  UNL11      -0.2047
     22 N           2.1393   -3.0987   -1.0049 N.am    1  UNL11      -0.2945
     23 C           3.4301   -2.7651   -1.5665 C.3     1  UNL11       0.0308
     24 C           4.5679   -2.9067   -0.5803 C.3     1  UNL11       0.0305
     25 N           4.3872   -4.1351    0.1764 N.am    1  UNL11      -0.2983
     26 C           5.4503   -5.0554    0.2405 C.2     1  UNL11       0.2187
     27 O           6.5504   -4.8012   -0.3620 O.2     1  UNL11      -0.2753
     28 C           5.3937   -6.3256    0.9682 C.3     1  UNL11       0.0358
     29 C           6.4896   -6.7029    1.9108 C.3     1  UNL11      -0.0412
     30 C           6.4399   -7.3263    0.5765 C.3     1  UNL11      -0.0412
     31 C           3.1020   -4.3065    0.8119 C.3     1  UNL11       0.0305
     32 C           2.0079   -4.3353   -0.2647 C.3     1  UNL11       0.0308
     33 H          -1.3583   -1.4859   -2.1545 H       1  UNL11       0.0629
     34 H          -3.8125   -1.2737   -2.2674 H       1  UNL11       0.0379
     35 H          -4.6533   -2.7036   -1.5427 H       1  UNL11       0.0379
     36 H          -6.9263    1.5689   -0.6225 H       1  UNL11       0.4829
     37 H          -6.2283    0.3221    3.7074 H       1  UNL11       0.0627
     38 H          -4.8239   -1.3776    4.8406 H       1  UNL11       0.0618
     39 H          -3.4011   -2.8607    3.4304 H       1  UNL11       0.0618
     40 H          -3.3690   -2.6480    0.9744 H       1  UNL11       0.0624
     41 H          -3.8121   -3.2518    0.8835 H       1  UNL11       0.0621
     42 H          -1.7461   -4.0885    1.9871 H       1  UNL11       0.0646
     43 H           3.4616   -1.7051   -1.9253 H       1  UNL11       0.0480
     44 H           3.6511   -3.4766   -2.4080 H       1  UNL11       0.0480
     45 H           5.4908   -2.9840   -1.1603 H       1  UNL11       0.0480
     46 H           4.5676   -2.0109    0.0691 H       1  UNL11       0.0480
     47 H           4.3969   -6.7271    1.2072 H       1  UNL11       0.0394
     48 H           7.2957   -5.9658    2.1341 H       1  UNL11       0.0273
     49 H           6.2147   -7.3234    2.7815 H       1  UNL11       0.0273
     50 H           6.0874   -8.3550    0.3987 H       1  UNL11       0.0273
     51 H           7.2656   -7.0291   -0.1143 H       1  UNL11       0.0273
     52 H           3.0259   -5.1954    1.4364 H       1  UNL11       0.0480
     53 H           2.8757   -3.3955    1.4392 H       1  UNL11       0.0480
     54 H           1.0467   -4.4290    0.2585 H       1  UNL11       0.0480
     55 H           2.2177   -5.2206   -0.8803 H       1  UNL11       0.0480
@<TRIPOS>BOND
     1     1     2    2
     2     2     3    1
     3     2    22   am
     4     3     4   ar
     5     4     5   ar
     6     4    33    1
     7     5     6    1
     8     5    18   ar
     9     6     7    1
    10     6    34    1
    11     6    35    1
    12     7     8    2
    13     8     9    1
    14     9    10   am
    15     9    36    1
    16    10    11    2
    17    10    12    1
    18    12    13   ar
    19    13    14   ar
    20    13    37    1
    21    14    15   ar
    22    14    38    1
    23    15    16   ar
    24    15    39    1
    25    16    17   ar
    26    16    40    1
    27    17     7    1
    28    17    12   ar
    29    18    19   ar
    30    18    41    1
    31    19    20   ar
    32    19    42    1
    33    20    21    1
    34    20     3   ar
    35    22    23    1
    36    23    24    1
    37    23    43    1
    38    23    44    1
    39    24    25    1
    40    24    45    1
    41    24    46    1
    42    25    26   am
    43    25    31    1
    44    26    27    2
    45    26    28    1
    46    28    29    1
    47    28    47    1
    48    29    30    1
    49    29    48    1
    50    29    49    1
    51    30    28    1
    52    30    50    1
    53    30    51    1
    54    31    32    1
    55    31    52    1
    56    31    53    1
    57    32    22    1
    58    32    54    1
    59    32    55    1
@<TRIPOS>MOLECULE
*****
 55 59 0 0 0
SMALL
GASTEIGER

@<TRIPOS>ATOM
      1 O           1.0869   -1.5770   -2.2376 O.2     1  UNL11      -0.2699
      2 C           1.0344   -2.2581   -1.1629 C.2     1  UNL11       0.2495
      3 C          -0.2898   -2.5068   -0.6383 C.ar    1  UNL11       0.0723
      4 C          -1.4526   -2.0533   -1.2326 C.ar    1  UNL11      -0.0433
      5 C          -2.6998   -2.2999   -0.7200 C.ar    1  UNL11      -0.0405
      6 C          -3.9822   -1.8218   -1.3112 C.3     1  UNL11       0.0211
      7 C          -5.1752   -2.2309   -0.5253 C.2     1  UNL11       0.1192
      8 N          -5.9938   -1.2523   -0.0110 N.2     1  UNL11      -0.0073
      9 N          -7.0883   -1.5237    0.6597 N.am    1  UNL11      -0.0356
     10 C          -7.5086   -2.7737    0.9054 C.2     1  UNL11       0.4383
     11 O          -8.5506   -3.0429    1.5428 O.2     1  UNL11      -0.2116
     12 C          -6.7291   -3.8270    0.4159 C.ar    1  UNL11       0.1004
     13 C          -7.0980   -5.1308    0.6431 C.ar    1  UNL11      -0.0441
     14 C          -6.3259   -6.1683    0.1732 C.ar    1  UNL11      -0.0608
     15 C          -5.1801   -5.8561   -0.5267 C.ar    1  UNL11      -0.0611
     16 C          -4.7733   -4.5676   -0.7773 C.ar    1  UNL11      -0.0518
     17 C          -5.5728   -3.5301   -0.2923 C.ar    1  UNL11       0.0192
     18 C          -2.8265   -3.0465    0.4628 C.ar    1  UNL11      -0.0555
     19 C          -1.6833   -3.5058    1.0677 C.ar    1  UNL11      -0.0254
     20 C          -0.4343   -3.2365    0.5202 C.ar    1  UNL11       0.1355
     21 F           0.6403   -3.7151    1.1625 F       1  UNL11      -0.2047
     22 N           2.2292   -2.7005   -0.5892 N.am    1  UNL11      -0.2945
     23 C           3.5120   -2.4009   -1.1871 C.3     1  UNL11       0.0308
     24 C           4.5214   -1.8581   -0.2005 C.3     1  UNL11       0.0305
     25 N           4.4424   -2.6300    1.0292 N.am    1  UNL11      -0.2983
     26 C           5.6210   -3.1921    1.5546 C.2     1  UNL11       0.2187
     27 O           6.7350   -3.0181    0.9492 O.2     1  UNL11      -0.2753
     28 C           5.6738   -3.9885    2.7832 C.3     1  UNL11       0.0358
     29 C           4.4987   -4.8126    3.1975 C.3     1  UNL11      -0.0412
     30 C           4.7540   -3.5291    3.8751 C.3     1  UNL11      -0.0412
     31 C           3.1298   -2.7540    1.6180 C.3     1  UNL11       0.0305
     32 C           2.2018   -3.4770    0.6316 C.3     1  UNL11       0.0308
     33 H          -1.3583   -1.4859   -2.1545 H       1  UNL11       0.0629
     34 H          -3.9909   -0.7127   -1.4267 H       1  UNL11       0.0379
     35 H          -4.1230   -2.2690   -2.3415 H       1  UNL11       0.0379
     36 H          -7.7134   -0.7594    1.0527 H       1  UNL11       0.4829
     37 H          -8.0243   -5.3057    1.2092 H       1  UNL11       0.0627
     38 H          -6.6479   -7.1896    0.3713 H       1  UNL11       0.0618
     39 H          -4.5697   -6.6575   -0.8977 H       1  UNL11       0.0618
     40 H          -3.8796   -4.3262   -1.3065 H       1  UNL11       0.0624
     41 H          -3.8121   -3.2518    0.8835 H       1  UNL11       0.0621
     42 H          -1.7461   -4.0885    1.9871 H       1  UNL11       0.0646
     43 H           3.4206   -1.6288   -1.9928 H       1  UNL11       0.0480
     44 H           3.9496   -3.3521   -1.5956 H       1  UNL11       0.0480
     45 H           5.5117   -1.9989   -0.6405 H       1  UNL11       0.0480
     46 H           4.2953   -0.7872   -0.0380 H       1  UNL11       0.0480
     47 H           6.6587   -4.3659    3.0988 H       1  UNL11       0.0394
     48 H           3.6231   -4.8983    2.5127 H       1  UNL11       0.0273
     49 H           4.7061   -5.7419    3.7562 H       1  UNL11       0.0273
     50 H           5.1947   -3.4502    4.8819 H       1  UNL11       0.0273
     51 H           4.0011   -2.7299    3.6711 H       1  UNL11       0.0273
     52 H           3.1162   -3.2674    2.5784 H       1  UNL11       0.0480
     53 H           2.6830   -1.7250    1.7445 H       1  UNL11       0.0480
     54 H           1.2085   -3.5184    1.0986 H       1  UNL11       0.0480
     55 H           2.6270   -4.4817    0.5031 H       1  UNL11       0.0480
@<TRIPOS>BOND
     1     1     2    2
     2     2     3    1
     3     2    22   am
     4     3     4   ar
     5     4     5   ar
     6     4    33    1
     7     5     6    1
     8     5    18   ar
     9     6     7    1
    10     6    34    1
    11     6    35    1
    12     7     8    2
    13     8     9    1
    14     9    10   am
    15     9    36    1
    16    10    11    2
    17    10    12    1
    18    12    13   ar
    19    13    14   ar
    20    13    37    1
    21    14    15   ar
    22    14    38    1
    23    15    16   ar
    24    15    39    1
    25    16    17   ar
    26    16    40    1
    27    17     7    1
    28    17    12   ar
    29    18    19   ar
    30    18    41    1
    31    19    20   ar
    32    19    42    1
    33    20    21    1
    34    20     3   ar
    35    22    23    1
    36    23    24    1
    37    23    43    1
    38    23    44    1
    39    24    25    1
    40    24    45    1
    41    24    46    1
    42    25    26   am
    43    25    31    1
    44    26    27    2
    45    26    28    1
    46    28    29    1
    47    28    47    1
    48    29    30    1
    49    29    48    1
    50    29    49    1
    51    30    28    1
    52    30    50    1
    53    30    51    1
    54    31    32    1
    55    31    52    1
    56    31    53    1
    57    32    22    1
    58    32    54    1
    59    32    55    1
@<TRIPOS>MOLECULE
*****
 55 59 0 0 0
SMALL
GASTEIGER

@<TRIPOS>ATOM
      1 O           1.1774   -1.1763   -1.8192 O.2     1  UNL11      -0.2699
      2 C           1.0344   -2.2581   -1.1629 C.2     1  UNL11       0.2495
      3 C          -0.2898   -2.5068   -0.6383 C.ar    1  UNL11       0.0723
      4 C          -1.4526   -2.0533   -1.2326 C.ar    1  UNL11      -0.0433
      5 C          -2.6998   -2.2999   -0.7200 C.ar    1  UNL11      -0.0405
      6 C          -3.9822   -1.8218   -1.3112 C.3     1  UNL11       0.0211
      7 C          -3.7917   -1.0244   -2.5507 C.2     1  UNL11       0.1192
      8 N          -3.1850   -1.6205   -3.6318 N.2     1  UNL11      -0.0073
      9 N          -3.0131   -1.0041   -4.7772 N.am    1  UNL11      -0.0356
     10 C          -3.4104    0.2577   -4.9995 C.2     1  UNL11       0.4383
     11 O          -3.2520    0.8538   -6.0876 O.2     1  UNL11      -0.2116
     12 C          -4.0360    0.9346   -3.9473 C.ar    1  UNL11       0.1004
     13 C          -4.4562    2.2329   -4.1061 C.ar    1  UNL11      -0.0441
     14 C          -5.0604    2.9045   -3.0682 C.ar    1  UNL11      -0.0608
     15 C          -5.2273    2.2350   -1.8749 C.ar    1  UNL11      -0.0611
     16 C          -4.8229    0.9374   -1.6717 C.ar    1  UNL11      -0.0518
     17 C          -4.2132    0.2745   -2.7391 C.ar    1  UNL11       0.0192
     18 C          -2.8265   -3.0465    0.4628 C.ar    1  UNL11      -0.0555
     19 C          -1.6833   -3.5058    1.0677 C.ar    1  UNL11      -0.0254
     20 C          -0.4343   -3.2365    0.5202 C.ar    1  UNL11       0.1355
     21 F           0.6403   -3.7151    1.1625 F       1  UNL11      -0.2047
     22 N           2.1393   -3.0987   -1.0049 N.am    1  UNL11      -0.2945
     23 C           3.4301   -2.7651   -1.5665 C.3     1  UNL11       0.0308
     24 C           4.5679   -2.9067   -0.5803 C.3     1  UNL11       0.0305
     25 N           4.3872   -4.1351    0.1764 N.am    1  UNL11      -0.2983
     26 C           5.4503   -5.0554    0.2405 C.2     1  UNL11       0.2187
     27 O           6.5504   -4.8012   -0.3620 O.2     1  UNL11      -0.2753
     28 C           5.3937   -6.3256    0.9682 C.3     1  UNL11       0.0358
     29 C           6.6363   -6.9155    1.5511 C.3     1  UNL11      -0.0412
     30 C           6.0939   -7.4703    0.2983 C.3     1  UNL11      -0.0412
     31 C           3.1020   -4.3065    0.8119 C.3     1  UNL11       0.0305
     32 C           2.0079   -4.3353   -0.2647 C.3     1  UNL11       0.0308
     33 H          -1.3583   -1.4859   -2.1545 H       1  UNL11       0.0629
     34 H          -4.6721   -2.6697   -1.5318 H       1  UNL11       0.0379
     35 H          -4.5122   -1.1371   -0.5820 H       1  UNL11       0.0379
     36 H          -2.5428   -1.4744   -5.6061 H       1  UNL11       0.4829
     37 H          -4.2905    2.7046   -5.0854 H       1  UNL11       0.0627
     38 H          -5.3814    3.9328   -3.2288 H       1  UNL11       0.0618
     39 H          -5.6972    2.7493   -1.0580 H       1  UNL11       0.0618
     40 H          -4.9393    0.4243   -0.7442 H       1  UNL11       0.0624
     41 H          -3.8121   -3.2518    0.8835 H       1  UNL11       0.0621
     42 H          -1.7461   -4.0885    1.9871 H       1  UNL11       0.0646
     43 H           3.4616   -1.7051   -1.9253 H       1  UNL11       0.0480
     44 H           3.6511   -3.4766   -2.4080 H       1  UNL11       0.0480
     45 H           5.4908   -2.9840   -1.1603 H       1  UNL11       0.0480
     46 H           4.5676   -2.0109    0.0691 H       1  UNL11       0.0480
     47 H           4.4571   -6.5649    1.4950 H       1  UNL11       0.0394
     48 H           7.5855   -6.3316    1.5181 H       1  UNL11       0.0273
     49 H           6.5265   -7.5148    2.4717 H       1  UNL11       0.0273
     50 H           5.5353   -8.4186    0.2449 H       1  UNL11       0.0273
     51 H           6.7198   -7.2880   -0.6085 H       1  UNL11       0.0273
     52 H           3.0259   -5.1954    1.4364 H       1  UNL11       0.0480
     53 H           2.8757   -3.3955    1.4392 H       1  UNL11       0.0480
     54 H           1.0467   -4.4290    0.2585 H       1  UNL11       0.0480
     55 H           2.2177   -5.2206   -0.8803 H       1  UNL11       0.0480
@<TRIPOS>BOND
     1     1     2    2
     2     2     3    1
     3     2    22   am
     4     3     4   ar
     5     4     5   ar
     6     4    33    1
     7     5     6    1
     8     5    18   ar
     9     6     7    1
    10     6    34    1
    11     6    35    1
    12     7     8    2
    13     8     9    1
    14     9    10   am
    15     9    36    1
    16    10    11    2
    17    10    12    1
    18    12    13   ar
    19    13    14   ar
    20    13    37    1
    21    14    15   ar
    22    14    38    1
    23    15    16   ar
    24    15    39    1
    25    16    17   ar
    26    16    40    1
    27    17     7    1
    28    17    12   ar
    29    18    19   ar
    30    18    41    1
    31    19    20   ar
    32    19    42    1
    33    20    21    1
    34    20     3   ar
    35    22    23    1
    36    23    24    1
    37    23    43    1
    38    23    44    1
    39    24    25    1
    40    24    45    1
    41    24    46    1
    42    25    26   am
    43    25    31    1
    44    26    27    2
    45    26    28    1
    46    28    29    1
    47    28    47    1
    48    29    30    1
    49    29    48    1
    50    29    49    1
    51    30    28    1
    52    30    50    1
    53    30    51    1
    54    31    32    1
    55    31    52    1
    56    31    53    1
    57    32    22    1
    58    32    54    1
    59    32    55    1
@<TRIPOS>MOLECULE
*****
 55 59 0 0 0
SMALL
GASTEIGER

@<TRIPOS>ATOM
      1 O           1.0869   -1.5770   -2.2376 O.2     1  UNL11      -0.2699
      2 C           1.0344   -2.2581   -1.1629 C.2     1  UNL11       0.2495
      3 C          -0.2898   -2.5068   -0.6383 C.ar    1  UNL11       0.0723
      4 C          -1.4526   -2.0533   -1.2326 C.ar    1  UNL11      -0.0433
      5 C          -2.6998   -2.2999   -0.7200 C.ar    1  UNL11      -0.0405
      6 C          -3.9822   -1.8218   -1.3112 C.3     1  UNL11       0.0211
      7 C          -4.2161   -2.3318   -2.6873 C.2     1  UNL11       0.1192
      8 N          -3.6904   -3.5542   -3.0359 N.2     1  UNL11      -0.0073
      9 N          -3.8817   -4.0981   -4.2145 N.am    1  UNL11      -0.0356
     10 C          -4.6034   -3.5160   -5.1840 C.2     1  UNL11       0.4383
     11 O          -4.7923   -4.0263   -6.3102 O.2     1  UNL11      -0.2116
     12 C          -5.1717   -2.2680   -4.9078 C.ar    1  UNL11       0.1004
     13 C          -5.9125   -1.6133   -5.8617 C.ar    1  UNL11      -0.0441
     14 C          -6.4618   -0.3800   -5.5962 C.ar    1  UNL11      -0.0608
     15 C          -6.2443    0.1701   -4.3511 C.ar    1  UNL11      -0.0611
     16 C          -5.5108   -0.4487   -3.3675 C.ar    1  UNL11      -0.0518
     17 C          -4.9636   -1.7004   -3.6583 C.ar    1  UNL11       0.0192
     18 C          -2.8265   -3.0465    0.4628 C.ar    1  UNL11      -0.0555
     19 C          -1.6833   -3.5058    1.0677 C.ar    1  UNL11      -0.0254
     20 C          -0.4343   -3.2365    0.5202 C.ar    1  UNL11       0.1355
     21 F           0.6403   -3.7151    1.1625 F       1  UNL11      -0.2047
     22 N           2.2292   -2.7005   -0.5892 N.am    1  UNL11      -0.2945
     23 C           2.2393   -3.4921    0.6217 C.3     1  UNL11       0.0308
     24 C           3.1115   -4.7238    0.5258 C.3     1  UNL11       0.0305
     25 N           4.3572   -4.3704   -0.1356 N.am    1  UNL11      -0.2983
     26 C           5.5746   -4.6963    0.4911 C.2     1  UNL11       0.2187
     27 O           5.5688   -5.2932    1.6232 O.2     1  UNL11      -0.2753
     28 C           6.8937   -4.3950   -0.0707 C.3     1  UNL11       0.0358
     29 C           7.0850   -3.1974   -0.9429 C.3     1  UNL11      -0.0412
     30 C           6.9928   -4.5319   -1.5610 C.3     1  UNL11      -0.0412
     31 C           4.2327   -3.7007   -1.4088 C.3     1  UNL11       0.0305
     32 C           3.4950   -2.3695   -1.2074 C.3     1  UNL11       0.0308
     33 H          -1.3583   -1.4859   -2.1545 H       1  UNL11       0.0629
     34 H          -4.8544   -2.0966   -0.6729 H       1  UNL11       0.0379
     35 H          -3.9705   -0.6932   -1.3980 H       1  UNL11       0.0379
     36 H          -3.4706   -5.0433   -4.4733 H       1  UNL11       0.4829
     37 H          -6.0449   -2.1116   -6.8329 H       1  UNL11       0.0627
     38 H          -7.0434    0.1108   -6.3752 H       1  UNL11       0.0618
     39 H          -6.6678    1.1322   -4.1328 H       1  UNL11       0.0618
     40 H          -5.3308   -0.0168   -2.4093 H       1  UNL11       0.0624
     41 H          -3.8121   -3.2518    0.8835 H       1  UNL11       0.0621
     42 H          -1.7461   -4.0885    1.9871 H       1  UNL11       0.0646
     43 H           1.2141   -3.8583    0.8830 H       1  UNL11       0.0480
     44 H           2.6635   -2.8689    1.4553 H       1  UNL11       0.0480
     45 H           3.3342   -5.0427    1.5469 H       1  UNL11       0.0480
     46 H           2.5472   -5.4968   -0.0295 H       1  UNL11       0.0480
     47 H           7.7742   -4.7104    0.5099 H       1  UNL11       0.0394
     48 H           6.2426   -2.4794   -1.0772 H       1  UNL11       0.0273
     49 H           8.0739   -2.7072   -0.9170 H       1  UNL11       0.0273
     50 H           7.8651   -5.0871   -1.9419 H       1  UNL11       0.0273
     51 H           6.0720   -4.7084   -2.1677 H       1  UNL11       0.0273
     52 H           5.1798   -3.5225   -1.9159 H       1  UNL11       0.0480
     53 H           3.5633   -4.3107   -2.0830 H       1  UNL11       0.0480
     54 H           3.3877   -1.9100   -2.1993 H       1  UNL11       0.0480
     55 H           4.1398   -1.7666   -0.5535 H       1  UNL11       0.0480
@<TRIPOS>BOND
     1     1     2    2
     2     2     3    1
     3     2    22   am
     4     3     4   ar
     5     4     5   ar
     6     4    33    1
     7     5     6    1
     8     5    18   ar
     9     6     7    1
    10     6    34    1
    11     6    35    1
    12     7     8    2
    13     8     9    1
    14     9    10   am
    15     9    36    1
    16    10    11    2
    17    10    12    1
    18    12    13   ar
    19    13    14   ar
    20    13    37    1
    21    14    15   ar
    22    14    38    1
    23    15    16   ar
    24    15    39    1
    25    16    17   ar
    26    16    40    1
    27    17     7    1
    28    17    12   ar
    29    18    19   ar
    30    18    41    1
    31    19    20   ar
    32    19    42    1
    33    20    21    1
    34    20     3   ar
    35    22    23    1
    36    23    24    1
    37    23    43    1
    38    23    44    1
    39    24    25    1
    40    24    45    1
    41    24    46    1
    42    25    26   am
    43    25    31    1
    44    26    27    2
    45    26    28    1
    46    28    29    1
    47    28    47    1
    48    29    30    1
    49    29    48    1
    50    29    49    1
    51    30    28    1
    52    30    50    1
    53    30    51    1
    54    31    32    1
    55    31    52    1
    56    31    53    1
    57    32    22    1
    58    32    54    1
    59    32    55    1
@<TRIPOS>MOLECULE
*****
 55 59 0 0 0
SMALL
GASTEIGER

@<TRIPOS>ATOM
      1 O           1.1774   -1.1763   -1.8192 O.2     1  UNL11      -0.2699
      2 C           1.0344   -2.2581   -1.1629 C.2     1  UNL11       0.2495
      3 C          -0.2898   -2.5068   -0.6383 C.ar    1  UNL11       0.0723
      4 C          -1.4526   -2.0533   -1.2326 C.ar    1  UNL11      -0.0433
      5 C          -2.6998   -2.2999   -0.7200 C.ar    1  UNL11      -0.0405
      6 C          -3.9822   -1.8218   -1.3112 C.3     1  UNL11       0.0211
      7 C          -3.7917   -1.0244   -2.5507 C.2     1  UNL11       0.1192
      8 N          -2.6330   -0.2972   -2.6956 N.2     1  UNL11      -0.0073
      9 N          -2.3648    0.4017   -3.7731 N.am    1  UNL11      -0.0356
     10 C          -3.1908    0.4722   -4.8278 C.2     1  UNL11       0.4383
     11 O          -2.9442    1.1347   -5.8596 O.2     1  UNL11      -0.2116
     12 C          -4.3928   -0.2398   -4.7577 C.ar    1  UNL11       0.1004
     13 C          -5.2879   -0.2002   -5.7992 C.ar    1  UNL11      -0.0441
     14 C          -6.4764   -0.8898   -5.7269 C.ar    1  UNL11      -0.0608
     15 C          -6.7347   -1.6147   -4.5833 C.ar    1  UNL11      -0.0611
     16 C          -5.8690   -1.6828   -3.5182 C.ar    1  UNL11      -0.0518
     17 C          -4.6680   -0.9762   -3.6136 C.ar    1  UNL11       0.0192
     18 C          -2.8265   -3.0465    0.4628 C.ar    1  UNL11      -0.0555
     19 C          -1.6833   -3.5058    1.0677 C.ar    1  UNL11      -0.0254
     20 C          -0.4343   -3.2365    0.5202 C.ar    1  UNL11       0.1355
     21 F           0.6403   -3.7151    1.1625 F       1  UNL11      -0.2047
     22 N           2.1393   -3.0987   -1.0049 N.am    1  UNL11      -0.2945
     23 C           3.4301   -2.7651   -1.5665 C.3     1  UNL11       0.0308
     24 C           4.5679   -2.9067   -0.5803 C.3     1  UNL11       0.0305
     25 N           4.3872   -4.1351    0.1764 N.am    1  UNL11      -0.2983
     26 C           5.4503   -5.0554    0.2405 C.2     1  UNL11       0.2187
     27 O           6.5504   -4.8012   -0.3620 O.2     1  UNL11      -0.2753
     28 C           5.3937   -6.3256    0.9682 C.3     1  UNL11       0.0358
     29 C           4.0958   -7.0494    1.1200 C.3     1  UNL11      -0.0412
     30 C           4.6307   -6.2820    2.2587 C.3     1  UNL11      -0.0412
     31 C           3.1020   -4.3065    0.8119 C.3     1  UNL11       0.0305
     32 C           2.0079   -4.3353   -0.2647 C.3     1  UNL11       0.0308
     33 H          -1.3583   -1.4859   -2.1545 H       1  UNL11       0.0629
     34 H          -4.6721   -2.6697   -1.5318 H       1  UNL11       0.0379
     35 H          -4.5122   -1.1371   -0.5820 H       1  UNL11       0.0379
     36 H          -1.4663    0.9601   -3.8744 H       1  UNL11       0.4829
     37 H          -5.0161    0.3987   -6.6804 H       1  UNL11       0.0627
     38 H          -7.1627   -0.8364   -6.5708 H       1  UNL11       0.0618
     39 H          -7.6591   -2.1564   -4.5156 H       1  UNL11       0.0618
     40 H          -6.0752   -2.2321   -2.6278 H       1  UNL11       0.0624
     41 H          -3.8121   -3.2518    0.8835 H       1  UNL11       0.0621
     42 H          -1.7461   -4.0885    1.9871 H       1  UNL11       0.0646
     43 H           3.4616   -1.7051   -1.9253 H       1  UNL11       0.0480
     44 H           3.6511   -3.4766   -2.4080 H       1  UNL11       0.0480
     45 H           5.4908   -2.9840   -1.1603 H       1  UNL11       0.0480
     46 H           4.5676   -2.0109    0.0691 H       1  UNL11       0.0480
     47 H           6.2954   -6.9570    0.9534 H       1  UNL11       0.0394
     48 H           3.1930   -6.6693    0.5875 H       1  UNL11       0.0273
     49 H           4.1361   -8.1513    1.1751 H       1  UNL11       0.0273
     50 H           5.1197   -6.7474    3.1295 H       1  UNL11       0.0273
     51 H           4.0451   -5.3707    2.5302 H       1  UNL11       0.0273
     52 H           3.0259   -5.1954    1.4364 H       1  UNL11       0.0480
     53 H           2.8757   -3.3955    1.4392 H       1  UNL11       0.0480
     54 H           1.0467   -4.4290    0.2585 H       1  UNL11       0.0480
     55 H           2.2177   -5.2206   -0.8803 H       1  UNL11       0.0480
@<TRIPOS>BOND
     1     1     2    2
     2     2     3    1
     3     2    22   am
     4     3     4   ar
     5     4     5   ar
     6     4    33    1
     7     5     6    1
     8     5    18   ar
     9     6     7    1
    10     6    34    1
    11     6    35    1
    12     7     8    2
    13     8     9    1
    14     9    10   am
    15     9    36    1
    16    10    11    2
    17    10    12    1
    18    12    13   ar
    19    13    14   ar
    20    13    37    1
    21    14    15   ar
    22    14    38    1
    23    15    16   ar
    24    15    39    1
    25    16    17   ar
    26    16    40    1
    27    17     7    1
    28    17    12   ar
    29    18    19   ar
    30    18    41    1
    31    19    20   ar
    32    19    42    1
    33    20    21    1
    34    20     3   ar
    35    22    23    1
    36    23    24    1
    37    23    43    1
    38    23    44    1
    39    24    25    1
    40    24    45    1
    41    24    46    1
    42    25    26   am
    43    25    31    1
    44    26    27    2
    45    26    28    1
    46    28    29    1
    47    28    47    1
    48    29    30    1
    49    29    48    1
    50    29    49    1
    51    30    28    1
    52    30    50    1
    53    30    51    1
    54    31    32    1
    55    31    52    1
    56    31    53    1
    57    32    22    1
    58    32    54    1
    59    32    55    1
@<TRIPOS>MOLECULE
*****
 55 59 0 0 0
SMALL
GASTEIGER

@<TRIPOS>ATOM
      1 O           1.1158   -2.1311   -2.4273 O.2     1  UNL11      -0.2699
      2 C           1.0344   -2.2581   -1.1629 C.2     1  UNL11       0.2495
      3 C          -0.2898   -2.5068   -0.6383 C.ar    1  UNL11       0.0723
      4 C          -1.4526   -2.0533   -1.2326 C.ar    1  UNL11      -0.0433
      5 C          -2.6998   -2.2999   -0.7200 C.ar    1  UNL11      -0.0405
      6 C          -3.9822   -1.8218   -1.3112 C.3     1  UNL11       0.0211
      7 C          -3.8421   -0.5396   -2.0492 C.2     1  UNL11       0.1192
      8 N          -4.1607   -0.5102   -3.3870 N.2     1  UNL11      -0.0073
      9 N          -4.1050    0.5864   -4.1052 N.am    1  UNL11      -0.0356
     10 C          -3.7338    1.7744   -3.6048 C.2     1  UNL11       0.4383
     11 O          -3.6781    2.8255   -4.2805 O.2     1  UNL11      -0.2116
     12 C          -3.3921    1.8280   -2.2494 C.ar    1  UNL11       0.1004
     13 C          -2.9923    3.0117   -1.6779 C.ar    1  UNL11      -0.0441
     14 C          -2.6438    3.0637   -0.3478 C.ar    1  UNL11      -0.0608
     15 C          -2.7093    1.8974    0.3839 C.ar    1  UNL11      -0.0611
     16 C          -3.1034    0.6922   -0.1460 C.ar    1  UNL11      -0.0518
     17 C          -3.4539    0.6627   -1.4977 C.ar    1  UNL11       0.0192
     18 C          -2.8265   -3.0465    0.4628 C.ar    1  UNL11      -0.0555
     19 C          -1.6833   -3.5058    1.0677 C.ar    1  UNL11      -0.0254
     20 C          -0.4343   -3.2365    0.5202 C.ar    1  UNL11       0.1355
     21 F           0.6403   -3.7151    1.1625 F       1  UNL11      -0.2047
     22 N           2.2005   -2.1501   -0.4007 N.am    1  UNL11      -0.2945
     23 C           2.1805   -2.3003    1.0381 C.3     1  UNL11       0.0308
     24 C           3.2422   -3.2437    1.5574 C.3     1  UNL11       0.0305
     25 N           4.4905   -2.9802    0.8600 N.am    1  UNL11      -0.2983
     26 C           5.6534   -2.7423    1.6164 C.2     1  UNL11       0.2187
     27 O           6.7601   -2.4948    1.0232 O.2     1  UNL11      -0.2753
     28 C           5.6974   -2.7563    3.0807 C.3     1  UNL11       0.0358
     29 C           4.7691   -3.6353    3.8536 C.3     1  UNL11      -0.0412
     30 C           4.4822   -2.1932    3.7556 C.3     1  UNL11      -0.0412
     31 C           4.4259   -2.9869   -0.5825 C.3     1  UNL11       0.0305
     32 C           3.4665   -1.8828   -1.0486 C.3     1  UNL11       0.0308
     33 H          -1.3583   -1.4859   -2.1545 H       1  UNL11       0.0629
     34 H          -4.4265   -2.5830   -1.9944 H       1  UNL11       0.0379
     35 H          -4.7363   -1.6248   -0.4902 H       1  UNL11       0.0379
     36 H          -4.3534    0.5976   -5.1384 H       1  UNL11       0.4829
     37 H          -2.9635    3.9027   -2.3216 H       1  UNL11       0.0627
     38 H          -2.3316    4.0186    0.0727 H       1  UNL11       0.0618
     39 H          -2.4393    1.9260    1.4225 H       1  UNL11       0.0618
     40 H          -3.1405   -0.2129    0.4166 H       1  UNL11       0.0624
     41 H          -3.8121   -3.2518    0.8835 H       1  UNL11       0.0621
     42 H          -1.7461   -4.0885    1.9871 H       1  UNL11       0.0646
     43 H           1.2014   -2.7089    1.3959 H       1  UNL11       0.0480
     44 H           2.3895   -1.3006    1.5072 H       1  UNL11       0.0480
     45 H           3.3795   -3.0233    2.6188 H       1  UNL11       0.0480
     46 H           2.8840   -4.2785    1.3982 H       1  UNL11       0.0480
     47 H           6.6659   -2.5444    3.5592 H       1  UNL11       0.0394
     48 H           4.1167   -4.3553    3.3067 H       1  UNL11       0.0273
     49 H           5.1317   -4.0254    4.8206 H       1  UNL11       0.0273
     50 H           4.6668   -1.4795    4.5746 H       1  UNL11       0.0273
     51 H           3.5796   -1.9316    3.1523 H       1  UNL11       0.0273
     52 H           5.3900   -2.8674   -1.0748 H       1  UNL11       0.0480
     53 H           3.9543   -3.9532   -0.9266 H       1  UNL11       0.0480
     54 H           3.4160   -1.9444   -2.1442 H       1  UNL11       0.0480
     55 H           3.9178   -0.9366   -0.7203 H       1  UNL11       0.0480
@<TRIPOS>BOND
     1     1     2    2
     2     2     3    1
     3     2    22   am
     4     3     4   ar
     5     4     5   ar
     6     4    33    1
     7     5     6    1
     8     5    18   ar
     9     6     7    1
    10     6    34    1
    11     6    35    1
    12     7     8    2
    13     8     9    1
    14     9    10   am
    15     9    36    1
    16    10    11    2
    17    10    12    1
    18    12    13   ar
    19    13    14   ar
    20    13    37    1
    21    14    15   ar
    22    14    38    1
    23    15    16   ar
    24    15    39    1
    25    16    17   ar
    26    16    40    1
    27    17     7    1
    28    17    12   ar
    29    18    19   ar
    30    18    41    1
    31    19    20   ar
    32    19    42    1
    33    20    21    1
    34    20     3   ar
    35    22    23    1
    36    23    24    1
    37    23    43    1
    38    23    44    1
    39    24    25    1
    40    24    45    1
    41    24    46    1
    42    25    26   am
    43    25    31    1
    44    26    27    2
    45    26    28    1
    46    28    29    1
    47    28    47    1
    48    29    30    1
    49    29    48    1
    50    29    49    1
    51    30    28    1
    52    30    50    1
    53    30    51    1
    54    31    32    1
    55    31    52    1
    56    31    53    1
    57    32    22    1
    58    32    54    1
    59    32    55    1
@<TRIPOS>MOLECULE
*****
 55 59 0 0 0
SMALL
GASTEIGER

@<TRIPOS>ATOM
      1 O           1.1158   -2.1311   -2.4273 O.2     1  UNL11      -0.2699
      2 C           1.0344   -2.2581   -1.1629 C.2     1  UNL11       0.2495
      3 C          -0.2898   -2.5068   -0.6383 C.ar    1  UNL11       0.0723
      4 C          -1.4526   -2.0533   -1.2326 C.ar    1  UNL11      -0.0433
      5 C          -2.6998   -2.2999   -0.7200 C.ar    1  UNL11      -0.0405
      6 C          -3.9822   -1.8218   -1.3112 C.3     1  UNL11       0.0211
      7 C          -3.8421   -0.5396   -2.0492 C.2     1  UNL11       0.1192
      8 N          -4.1607   -0.5102   -3.3870 N.2     1  UNL11      -0.0073
      9 N          -4.1050    0.5864   -4.1052 N.am    1  UNL11      -0.0356
     10 C          -3.7338    1.7744   -3.6048 C.2     1  UNL11       0.4383
     11 O          -3.6781    2.8255   -4.2805 O.2     1  UNL11      -0.2116
     12 C          -3.3921    1.8280   -2.2494 C.ar    1  UNL11       0.1004
     13 C          -2.9923    3.0117   -1.6779 C.ar    1  UNL11      -0.0441
     14 C          -2.6438    3.0637   -0.3478 C.ar    1  UNL11      -0.0608
     15 C          -2.7093    1.8974    0.3839 C.ar    1  UNL11      -0.0611
     16 C          -3.1034    0.6922   -0.1460 C.ar    1  UNL11      -0.0518
     17 C          -3.4539    0.6627   -1.4977 C.ar    1  UNL11       0.0192
     18 C          -2.8265   -3.0465    0.4628 C.ar    1  UNL11      -0.0555
     19 C          -1.6833   -3.5058    1.0677 C.ar    1  UNL11      -0.0254
     20 C          -0.4343   -3.2365    0.5202 C.ar    1  UNL11       0.1355
     21 F           0.6403   -3.7151    1.1625 F       1  UNL11      -0.2047
     22 N           2.2005   -2.1501   -0.4007 N.am    1  UNL11      -0.2945
     23 C           3.4855   -1.8978   -1.0155 C.3     1  UNL11       0.0308
     24 C           4.2605   -0.7831   -0.3493 C.3     1  UNL11       0.0305
     25 N           4.1477   -0.9256    1.0932 N.am    1  UNL11      -0.2983
     26 C           5.3231   -0.9468    1.8672 C.2     1  UNL11       0.2187
     27 O           5.2475   -1.0849    3.1373 O.2     1  UNL11      -0.2753
     28 C           6.6733   -0.8184    1.3131 C.3     1  UNL11       0.0358
     29 C           6.9054   -0.0188    0.0728 C.3     1  UNL11      -0.0412
     30 C           6.8798   -1.4898   -0.0120 C.3     1  UNL11      -0.0412
     31 C           2.8068   -1.0346    1.6178 C.3     1  UNL11       0.0305
     32 C           2.1401   -2.2902    1.0383 C.3     1  UNL11       0.0308
     33 H          -1.3583   -1.4859   -2.1545 H       1  UNL11       0.0629
     34 H          -4.4265   -2.5830   -1.9944 H       1  UNL11       0.0379
     35 H          -4.7363   -1.6248   -0.4902 H       1  UNL11       0.0379
     36 H          -4.3534    0.5976   -5.1384 H       1  UNL11       0.4829
     37 H          -2.9635    3.9027   -2.3216 H       1  UNL11       0.0627
     38 H          -2.3316    4.0186    0.0727 H       1  UNL11       0.0618
     39 H          -2.4393    1.9260    1.4225 H       1  UNL11       0.0618
     40 H          -3.1405   -0.2129    0.4166 H       1  UNL11       0.0624
     41 H          -3.8121   -3.2518    0.8835 H       1  UNL11       0.0621
     42 H          -1.7461   -4.0885    1.9871 H       1  UNL11       0.0646
     43 H           3.3770   -1.6005   -2.0894 H       1  UNL11       0.0480
     44 H           4.1175   -2.8223   -0.9207 H       1  UNL11       0.0480
     45 H           5.3088   -0.9035   -0.6332 H       1  UNL11       0.0480
     46 H           3.8482    0.1788   -0.7086 H       1  UNL11       0.0480
     47 H           7.5159   -0.8609    2.0204 H       1  UNL11       0.0394
     48 H           6.0626    0.5634   -0.3673 H       1  UNL11       0.0273
     49 H           7.8815    0.4874   -0.0258 H       1  UNL11       0.0273
     50 H           7.7861   -2.1091   -0.1081 H       1  UNL11       0.0273
     51 H           6.0073   -1.9155   -0.5640 H       1  UNL11       0.0273
     52 H           2.7515   -1.0583    2.7052 H       1  UNL11       0.0480
     53 H           2.1896   -0.1695    1.2367 H       1  UNL11       0.0480
     54 H           1.1142   -2.3174    1.4301 H       1  UNL11       0.0480
     55 H           2.7324   -3.1394    1.4055 H       1  UNL11       0.0480
@<TRIPOS>BOND
     1     1     2    2
     2     2     3    1
     3     2    22   am
     4     3     4   ar
     5     4     5   ar
     6     4    33    1
     7     5     6    1
     8     5    18   ar
     9     6     7    1
    10     6    34    1
    11     6    35    1
    12     7     8    2
    13     8     9    1
    14     9    10   am
    15     9    36    1
    16    10    11    2
    17    10    12    1
    18    12    13   ar
    19    13    14   ar
    20    13    37    1
    21    14    15   ar
    22    14    38    1
    23    15    16   ar
    24    15    39    1
    25    16    17   ar
    26    16    40    1
    27    17     7    1
    28    17    12   ar
    29    18    19   ar
    30    18    41    1
    31    19    20   ar
    32    19    42    1
    33    20    21    1
    34    20     3   ar
    35    22    23    1
    36    23    24    1
    37    23    43    1
    38    23    44    1
    39    24    25    1
    40    24    45    1
    41    24    46    1
    42    25    26   am
    43    25    31    1
    44    26    27    2
    45    26    28    1
    46    28    29    1
    47    28    47    1
    48    29    30    1
    49    29    48    1
    50    29    49    1
    51    30    28    1
    52    30    50    1
    53    30    51    1
    54    31    32    1
    55    31    52    1
    56    31    53    1
    57    32    22    1
    58    32    54    1
    59    32    55    1
@<TRIPOS>MOLECULE
*****
 55 59 0 0 0
SMALL
GASTEIGER

@<TRIPOS>ATOM
      1 O           1.9048   -3.1557   -0.9214 O.2     1  UNL11      -0.2699
      2 C           1.0344   -2.2581   -1.1629 C.2     1  UNL11       0.2495
      3 C          -0.2898   -2.5068   -0.6383 C.ar    1  UNL11       0.0723
      4 C          -1.4526   -2.0533   -1.2326 C.ar    1  UNL11      -0.0433
      5 C          -2.6998   -2.2999   -0.7200 C.ar    1  UNL11      -0.0405
      6 C          -3.9822   -1.8218   -1.3112 C.3     1  UNL11       0.0211
      7 C          -4.7597   -0.9511   -0.3915 C.2     1  UNL11       0.1192
      8 N          -5.6755   -1.5349    0.4527 N.2     1  UNL11      -0.0073
      9 N          -6.3753   -0.8474    1.3241 N.am    1  UNL11      -0.0356
     10 C          -6.2637    0.4812    1.4719 C.2     1  UNL11       0.4383
     11 O          -6.9254    1.1454    2.2998 O.2     1  UNL11      -0.2116
     12 C          -5.3527    1.1503    0.6479 C.ar    1  UNL11       0.1004
     13 C          -5.1991    2.5123    0.7410 C.ar    1  UNL11      -0.0441
     14 C          -4.3125    3.1739   -0.0774 C.ar    1  UNL11      -0.0608
     15 C          -3.5911    2.4287   -0.9854 C.ar    1  UNL11      -0.0611
     16 C          -3.7124    1.0657   -1.1128 C.ar    1  UNL11      -0.0518
     17 C          -4.6171    0.4147   -0.2711 C.ar    1  UNL11       0.0192
     18 C          -2.8265   -3.0465    0.4628 C.ar    1  UNL11      -0.0555
     19 C          -1.6833   -3.5058    1.0677 C.ar    1  UNL11      -0.0254
     20 C          -0.4343   -3.2365    0.5202 C.ar    1  UNL11       0.1355
     21 F           0.6403   -3.7151    1.1625 F       1  UNL11      -0.2047
     22 N           1.4166   -1.1322   -1.8968 N.am    1  UNL11      -0.2945
     23 C           0.4817   -0.0683   -2.1919 C.3     1  UNL11       0.0308
     24 C           1.0240    1.3093   -1.8834 C.3     1  UNL11       0.0305
     25 N           2.4013    1.3886   -2.3424 N.am    1  UNL11      -0.2983
     26 C           2.7747    2.4495   -3.1886 C.2     1  UNL11       0.2187
     27 O           3.9785    2.5310   -3.6153 O.2     1  UNL11      -0.2753
     28 C           1.8612    3.5045   -3.6345 C.3     1  UNL11       0.0358
     29 C           0.7255    3.9346   -2.7645 C.3     1  UNL11      -0.0412
     30 C           0.4590    3.0510   -3.9134 C.3     1  UNL11      -0.0412
     31 C           3.2868    0.3470   -1.8775 C.3     1  UNL11       0.0305
     32 C           2.7751   -1.0103   -2.3803 C.3     1  UNL11       0.0308
     33 H          -1.3583   -1.4859   -2.1545 H       1  UNL11       0.0629
     34 H          -3.8125   -1.2737   -2.2674 H       1  UNL11       0.0379
     35 H          -4.6533   -2.7036   -1.5427 H       1  UNL11       0.0379
     36 H          -7.0804   -1.3089    1.9716 H       1  UNL11       0.4829
     37 H          -5.8074    3.0426    1.4878 H       1  UNL11       0.0627
     38 H          -4.2158    4.2540    0.0233 H       1  UNL11       0.0618
     39 H          -2.8967    2.9343   -1.6294 H       1  UNL11       0.0618
     40 H          -3.1647    0.4913   -1.8248 H       1  UNL11       0.0624
     41 H          -3.8121   -3.2518    0.8835 H       1  UNL11       0.0621
     42 H          -1.7461   -4.0885    1.9871 H       1  UNL11       0.0646
     43 H          -0.4604   -0.1708   -1.5956 H       1  UNL11       0.0480
     44 H           0.2586   -0.0806   -3.2934 H       1  UNL11       0.0480
     45 H           0.4238    2.0270   -2.4480 H       1  UNL11       0.0480
     46 H           0.9360    1.4723   -0.7925 H       1  UNL11       0.0480
     47 H           2.2692    4.2759   -4.3057 H       1  UNL11       0.0394
     48 H           0.6411    3.5209   -1.7326 H       1  UNL11       0.0273
     49 H           0.4048    4.9884   -2.8379 H       1  UNL11       0.0273
     50 H           0.0132    3.4004   -4.8586 H       1  UNL11       0.0273
     51 H           0.1449    2.0129   -3.6474 H       1  UNL11       0.0273
     52 H           4.3270    0.4789   -2.1715 H       1  UNL11       0.0480
     53 H           3.2272    0.2869   -0.7517 H       1  UNL11       0.0480
     54 H           3.4508   -1.7764   -1.9766 H       1  UNL11       0.0480
     55 H           2.8310   -0.9632   -3.4763 H       1  UNL11       0.0480
@<TRIPOS>BOND
     1     1     2    2
     2     2     3    1
     3     2    22   am
     4     3     4   ar
     5     4     5   ar
     6     4    33    1
     7     5     6    1
     8     5    18   ar
     9     6     7    1
    10     6    34    1
    11     6    35    1
    12     7     8    2
    13     8     9    1
    14     9    10   am
    15     9    36    1
    16    10    11    2
    17    10    12    1
    18    12    13   ar
    19    13    14   ar
    20    13    37    1
    21    14    15   ar
    22    14    38    1
    23    15    16   ar
    24    15    39    1
    25    16    17   ar
    26    16    40    1
    27    17     7    1
    28    17    12   ar
    29    18    19   ar
    30    18    41    1
    31    19    20   ar
    32    19    42    1
    33    20    21    1
    34    20     3   ar
    35    22    23    1
    36    23    24    1
    37    23    43    1
    38    23    44    1
    39    24    25    1
    40    24    45    1
    41    24    46    1
    42    25    26   am
    43    25    31    1
    44    26    27    2
    45    26    28    1
    46    28    29    1
    47    28    47    1
    48    29    30    1
    49    29    48    1
    50    29    49    1
    51    30    28    1
    52    30    50    1
    53    30    51    1
    54    31    32    1
    55    31    52    1
    56    31    53    1
    57    32    22    1
    58    32    54    1
    59    32    55    1
@<TRIPOS>MOLECULE
*****
 55 59 0 0 0
SMALL
GASTEIGER

@<TRIPOS>ATOM
      1 O           1.9048   -3.1557   -0.9214 O.2     1  UNL11      -0.2699
      2 C           1.0344   -2.2581   -1.1629 C.2     1  UNL11       0.2495
      3 C          -0.2898   -2.5068   -0.6383 C.ar    1  UNL11       0.0723
      4 C          -1.4526   -2.0533   -1.2326 C.ar    1  UNL11      -0.0433
      5 C          -2.6998   -2.2999   -0.7200 C.ar    1  UNL11      -0.0405
      6 C          -3.9822   -1.8218   -1.3112 C.3     1  UNL11       0.0211
      7 C          -5.1224   -2.7383   -1.0500 C.2     1  UNL11       0.1192
      8 N          -5.0416   -4.0363   -1.4984 N.2     1  UNL11      -0.0073
      9 N          -5.9831   -4.9228   -1.2770 N.am    1  UNL11      -0.0356
     10 C          -7.1061   -4.6477   -0.5969 C.2     1  UNL11       0.4383
     11 O          -8.0091   -5.4855   -0.3798 O.2     1  UNL11      -0.2116
     12 C          -7.2649   -3.3468   -0.1078 C.ar    1  UNL11       0.1004
     13 C          -8.3973   -2.9969    0.5869 C.ar    1  UNL11      -0.0441
     14 C          -8.5608   -1.7144    1.0579 C.ar    1  UNL11      -0.0608
     15 C          -7.5579   -0.8018    0.8102 C.ar    1  UNL11      -0.0611
     16 C          -6.4092   -1.1077    0.1205 C.ar    1  UNL11      -0.0518
     17 C          -6.2636   -2.4157   -0.3472 C.ar    1  UNL11       0.0192
     18 C          -2.8265   -3.0465    0.4628 C.ar    1  UNL11      -0.0555
     19 C          -1.6833   -3.5058    1.0677 C.ar    1  UNL11      -0.0254
     20 C          -0.4343   -3.2365    0.5202 C.ar    1  UNL11       0.1355
     21 F           0.6403   -3.7151    1.1625 F       1  UNL11      -0.2047
     22 N           1.4166   -1.1322   -1.8968 N.am    1  UNL11      -0.2945
     23 C           2.7692   -0.9698   -2.3836 C.3     1  UNL11       0.0308
     24 C           2.8387   -0.5850   -3.8445 C.3     1  UNL11       0.0305
     25 N           1.8303    0.4269   -4.1151 N.am    1  UNL11      -0.2983
     26 C           2.2221    1.6251   -4.7412 C.2     1  UNL11       0.2187
     27 O           1.3533    2.5349   -4.9765 O.2     1  UNL11      -0.2753
     28 C           3.5944    1.9223   -5.1593 C.3     1  UNL11       0.0358
     29 C           4.5111    0.8181   -5.5742 C.3     1  UNL11      -0.0412
     30 C           4.6612    1.4149   -4.2352 C.3     1  UNL11      -0.0412
     31 C           0.4826    0.1054   -3.7085 C.3     1  UNL11       0.0305
     32 C           0.4501   -0.0949   -2.1868 C.3     1  UNL11       0.0308
     33 H          -1.3583   -1.4859   -2.1545 H       1  UNL11       0.0629
     34 H          -4.2479   -0.8034   -0.9426 H       1  UNL11       0.0379
     35 H          -3.8885   -1.7587   -2.4375 H       1  UNL11       0.0379
     36 H          -5.9102   -5.9231   -1.6283 H       1  UNL11       0.4829
     37 H          -9.1563   -3.7762    0.7473 H       1  UNL11       0.0627
     38 H          -9.4708   -1.4715    1.6047 H       1  UNL11       0.0618
     39 H          -7.6748    0.2019    1.1726 H       1  UNL11       0.0618
     40 H          -5.6398   -0.3981   -0.0833 H       1  UNL11       0.0624
     41 H          -3.8121   -3.2518    0.8835 H       1  UNL11       0.0621
     42 H          -1.7461   -4.0885    1.9871 H       1  UNL11       0.0646
     43 H           3.3591   -1.9162   -2.2844 H       1  UNL11       0.0480
     44 H           3.2590   -0.1343   -1.8133 H       1  UNL11       0.0480
     45 H           3.8266   -0.1516   -4.0181 H       1  UNL11       0.0480
     46 H           2.6837   -1.5016   -4.4447 H       1  UNL11       0.0480
     47 H           3.7786    2.9002   -5.6301 H       1  UNL11       0.0394
     48 H           4.1116   -0.2190   -5.6628 H       1  UNL11       0.0273
     49 H           5.2755    1.0558   -6.3344 H       1  UNL11       0.0273
     50 H           5.4587    2.1288   -3.9737 H       1  UNL11       0.0273
     51 H           4.3902    0.7424   -3.3858 H       1  UNL11       0.0273
     52 H          -0.2614    0.8464   -3.9972 H       1  UNL11       0.0480
     53 H           0.1940   -0.8952   -4.1447 H       1  UNL11       0.0480
     54 H          -0.5791   -0.3733   -1.9227 H       1  UNL11       0.0480
     55 H           0.7276    0.8749   -1.7518 H       1  UNL11       0.0480
@<TRIPOS>BOND
     1     1     2    2
     2     2     3    1
     3     2    22   am
     4     3     4   ar
     5     4     5   ar
     6     4    33    1
     7     5     6    1
     8     5    18   ar
     9     6     7    1
    10     6    34    1
    11     6    35    1
    12     7     8    2
    13     8     9    1
    14     9    10   am
    15     9    36    1
    16    10    11    2
    17    10    12    1
    18    12    13   ar
    19    13    14   ar
    20    13    37    1
    21    14    15   ar
    22    14    38    1
    23    15    16   ar
    24    15    39    1
    25    16    17   ar
    26    16    40    1
    27    17     7    1
    28    17    12   ar
    29    18    19   ar
    30    18    41    1
    31    19    20   ar
    32    19    42    1
    33    20    21    1
    34    20     3   ar
    35    22    23    1
    36    23    24    1
    37    23    43    1
    38    23    44    1
    39    24    25    1
    40    24    45    1
    41    24    46    1
    42    25    26   am
    43    25    31    1
    44    26    27    2
    45    26    28    1
    46    28    29    1
    47    28    47    1
    48    29    30    1
    49    29    48    1
    50    29    49    1
    51    30    28    1
    52    30    50    1
    53    30    51    1
    54    31    32    1
    55    31    52    1
    56    31    53    1
    57    32    22    1
    58    32    54    1
    59    32    55    1
@<TRIPOS>MOLECULE
*****
 55 59 0 0 0
SMALL
GASTEIGER

@<TRIPOS>ATOM
      1 O           1.9048   -3.1557   -0.9214 O.2     1  UNL11      -0.2699
      2 C           1.0344   -2.2581   -1.1629 C.2     1  UNL11       0.2495
      3 C          -0.2898   -2.5068   -0.6383 C.ar    1  UNL11       0.0723
      4 C          -1.4526   -2.0533   -1.2326 C.ar    1  UNL11      -0.0433
      5 C          -2.6998   -2.2999   -0.7200 C.ar    1  UNL11      -0.0405
      6 C          -3.9822   -1.8218   -1.3112 C.3     1  UNL11       0.0211
      7 C          -5.1224   -2.7383   -1.0500 C.2     1  UNL11       0.1192
      8 N          -6.2093   -2.2582   -0.3570 N.2     1  UNL11      -0.0073
      9 N          -7.2750   -2.9852   -0.1174 N.am    1  UNL11      -0.0356
     10 C          -7.4031   -4.2573   -0.5234 C.2     1  UNL11       0.4383
     11 O          -8.4147   -4.9584   -0.3009 O.2     1  UNL11      -0.2116
     12 C          -6.3385   -4.8204   -1.2349 C.ar    1  UNL11       0.1004
     13 C          -6.4017   -6.1223   -1.6690 C.ar    1  UNL11      -0.0441
     14 C          -5.3504   -6.6819   -2.3581 C.ar    1  UNL11      -0.0608
     15 C          -4.2419   -5.8974   -2.5950 C.ar    1  UNL11      -0.0611
     16 C          -4.1357   -4.5916   -2.1799 C.ar    1  UNL11      -0.0518
     17 C          -5.2152   -4.0437   -1.4833 C.ar    1  UNL11       0.0192
     18 C          -2.8265   -3.0465    0.4628 C.ar    1  UNL11      -0.0555
     19 C          -1.6833   -3.5058    1.0677 C.ar    1  UNL11      -0.0254
     20 C          -0.4343   -3.2365    0.5202 C.ar    1  UNL11       0.1355
     21 F           0.6403   -3.7151    1.1625 F       1  UNL11      -0.2047
     22 N           1.4166   -1.1322   -1.8968 N.am    1  UNL11      -0.2945
     23 C           2.7692   -0.9698   -2.3836 C.3     1  UNL11       0.0308
     24 C           2.8387   -0.5850   -3.8445 C.3     1  UNL11       0.0305
     25 N           1.8303    0.4269   -4.1151 N.am    1  UNL11      -0.2983
     26 C           2.2221    1.6251   -4.7412 C.2     1  UNL11       0.2187
     27 O           3.4480    1.8059   -5.0608 O.2     1  UNL11      -0.2753
     28 C           1.3040    2.7194   -5.0670 C.3     1  UNL11       0.0358
     29 C           0.0986    2.9683   -4.2205 C.3     1  UNL11      -0.0412
     30 C          -0.0597    2.2880   -5.5181 C.3     1  UNL11      -0.0412
     31 C           0.4826    0.1054   -3.7085 C.3     1  UNL11       0.0305
     32 C           0.4501   -0.0949   -2.1868 C.3     1  UNL11       0.0308
     33 H          -1.3583   -1.4859   -2.1545 H       1  UNL11       0.0629
     34 H          -4.2479   -0.8034   -0.9426 H       1  UNL11       0.0379
     35 H          -3.8885   -1.7587   -2.4375 H       1  UNL11       0.0379
     36 H          -8.1092   -2.6040    0.4194 H       1  UNL11       0.4829
     37 H          -7.3168   -6.6891   -1.4443 H       1  UNL11       0.0627
     38 H          -5.4341   -7.7165   -2.6876 H       1  UNL11       0.0618
     39 H          -3.4154   -6.3235   -3.1314 H       1  UNL11       0.0618
     40 H          -3.2725   -3.9893   -2.3509 H       1  UNL11       0.0624
     41 H          -3.8121   -3.2518    0.8835 H       1  UNL11       0.0621
     42 H          -1.7461   -4.0885    1.9871 H       1  UNL11       0.0646
     43 H           3.3591   -1.9162   -2.2844 H       1  UNL11       0.0480
     44 H           3.2590   -0.1343   -1.8133 H       1  UNL11       0.0480
     45 H           3.8266   -0.1516   -4.0181 H       1  UNL11       0.0480
     46 H           2.6837   -1.5016   -4.4447 H       1  UNL11       0.0480
     47 H           1.7287    3.6032   -5.5675 H       1  UNL11       0.0394
     48 H          -0.0400    2.3827   -3.2819 H       1  UNL11       0.0273
     49 H          -0.2531    4.0115   -4.1378 H       1  UNL11       0.0273
     50 H          -0.4535    2.7833   -6.4202 H       1  UNL11       0.0273
     51 H          -0.3545    1.2128   -5.4543 H       1  UNL11       0.0273
     52 H          -0.2614    0.8464   -3.9972 H       1  UNL11       0.0480
     53 H           0.1940   -0.8952   -4.1447 H       1  UNL11       0.0480
     54 H          -0.5791   -0.3733   -1.9227 H       1  UNL11       0.0480
     55 H           0.7276    0.8749   -1.7518 H       1  UNL11       0.0480
@<TRIPOS>BOND
     1     1     2    2
     2     2     3    1
     3     2    22   am
     4     3     4   ar
     5     4     5   ar
     6     4    33    1
     7     5     6    1
     8     5    18   ar
     9     6     7    1
    10     6    34    1
    11     6    35    1
    12     7     8    2
    13     8     9    1
    14     9    10   am
    15     9    36    1
    16    10    11    2
    17    10    12    1
    18    12    13   ar
    19    13    14   ar
    20    13    37    1
    21    14    15   ar
    22    14    38    1
    23    15    16   ar
    24    15    39    1
    25    16    17   ar
    26    16    40    1
    27    17     7    1
    28    17    12   ar
    29    18    19   ar
    30    18    41    1
    31    19    20   ar
    32    19    42    1
    33    20    21    1
    34    20     3   ar
    35    22    23    1
    36    23    24    1
    37    23    43    1
    38    23    44    1
    39    24    25    1
    40    24    45    1
    41    24    46    1
    42    25    26   am
    43    25    31    1
    44    26    27    2
    45    26    28    1
    46    28    29    1
    47    28    47    1
    48    29    30    1
    49    29    48    1
    50    29    49    1
    51    30    28    1
    52    30    50    1
    53    30    51    1
    54    31    32    1
    55    31    52    1
    56    31    53    1
    57    32    22    1
    58    32    54    1
    59    32    55    1
@<TRIPOS>MOLECULE
*****
 55 59 0 0 0
SMALL
GASTEIGER

@<TRIPOS>ATOM
      1 O           1.9677   -2.1802   -0.3001 O.2     1  UNL11      -0.2699
      2 C           1.0344   -2.2581   -1.1629 C.2     1  UNL11       0.2495
      3 C          -0.2898   -2.5068   -0.6383 C.ar    1  UNL11       0.0723
      4 C          -1.4526   -2.0533   -1.2326 C.ar    1  UNL11      -0.0433
      5 C          -2.6998   -2.2999   -0.7200 C.ar    1  UNL11      -0.0405
      6 C          -3.9822   -1.8218   -1.3112 C.3     1  UNL11       0.0211
      7 C          -3.9225   -1.6691   -2.7882 C.2     1  UNL11       0.1192
      8 N          -4.1549   -0.4275   -3.3329 N.2     1  UNL11      -0.0073
      9 N          -4.0828   -0.1941   -4.6220 N.am    1  UNL11      -0.0356
     10 C          -3.7778   -1.1391   -5.5239 C.2     1  UNL11       0.4383
     11 O          -3.7058   -0.9268   -6.7544 O.2     1  UNL11      -0.2116
     12 C          -3.5284   -2.4310   -5.0492 C.ar    1  UNL11       0.1004
     13 C          -3.2221   -3.4470   -5.9218 C.ar    1  UNL11      -0.0441
     14 C          -2.9887   -4.7212   -5.4578 C.ar    1  UNL11      -0.0608
     15 C          -3.0725   -4.9401   -4.0995 C.ar    1  UNL11      -0.0611
     16 C          -3.3754   -3.9545   -3.1909 C.ar    1  UNL11      -0.0518
     17 C          -3.6072   -2.6684   -3.6838 C.ar    1  UNL11       0.0192
     18 C          -2.8265   -3.0465    0.4628 C.ar    1  UNL11      -0.0555
     19 C          -1.6833   -3.5058    1.0677 C.ar    1  UNL11      -0.0254
     20 C          -0.4343   -3.2365    0.5202 C.ar    1  UNL11       0.1355
     21 F           0.6403   -3.7151    1.1625 F       1  UNL11      -0.2047
     22 N           1.3541   -2.1013   -2.5140 N.am    1  UNL11      -0.2945
     23 C           0.3394   -2.1620   -3.5435 C.3     1  UNL11       0.0308
     24 C           0.4134   -1.0154   -4.5268 C.3     1  UNL11       0.0305
     25 N           1.8054   -0.7807   -4.8752 N.am    1  UNL11      -0.2983
     26 C           2.1682   -0.7463   -6.2347 C.2     1  UNL11       0.2187
     27 O           1.2772   -0.9203   -7.1367 O.2     1  UNL11      -0.2753
     28 C           3.5337   -0.5191   -6.7144 C.3     1  UNL11       0.0358
     29 C           3.7998    0.4995   -7.7744 C.3     1  UNL11      -0.0412
     30 C           3.7814   -0.9291   -8.1357 C.3     1  UNL11      -0.0412
     31 C           2.7150   -0.5981   -3.7688 C.3     1  UNL11       0.0305
     32 C           2.7265   -1.8714   -2.9111 C.3     1  UNL11       0.0308
     33 H          -1.3583   -1.4859   -2.1545 H       1  UNL11       0.0629
     34 H          -4.8291   -2.5001   -1.0539 H       1  UNL11       0.0379
     35 H          -4.2363   -0.7963   -0.9047 H       1  UNL11       0.0379
     36 H          -4.2645    0.7694   -5.0321 H       1  UNL11       0.4829
     37 H          -3.1726   -3.2000   -6.9921 H       1  UNL11       0.0627
     38 H          -2.7483   -5.5026   -6.1774 H       1  UNL11       0.0618
     39 H          -2.8927   -5.9304   -3.7261 H       1  UNL11       0.0618
     40 H          -3.4541   -4.1271   -2.1416 H       1  UNL11       0.0624
     41 H          -3.8121   -3.2518    0.8835 H       1  UNL11       0.0621
     42 H          -1.7461   -4.0885    1.9871 H       1  UNL11       0.0646
     43 H          -0.6915   -2.1304   -3.1080 H       1  UNL11       0.0480
     44 H           0.4898   -3.1014   -4.1419 H       1  UNL11       0.0480
     45 H          -0.1263   -1.3245   -5.4252 H       1  UNL11       0.0480
     46 H          -0.0546   -0.1315   -4.0533 H       1  UNL11       0.0480
     47 H           4.3552   -0.6961   -6.0032 H       1  UNL11       0.0394
     48 H           2.9685    1.1562   -8.1216 H       1  UNL11       0.0273
     49 H           4.7768    1.0128   -7.7468 H       1  UNL11       0.0273
     50 H           4.6921   -1.5214   -8.3199 H       1  UNL11       0.0273
     51 H           2.9270   -1.2410   -8.7835 H       1  UNL11       0.0273
     52 H           3.7325   -0.3442   -4.0624 H       1  UNL11       0.0480
     53 H           2.3146    0.2113   -3.0911 H       1  UNL11       0.0480
     54 H           3.3983   -1.6800   -2.0634 H       1  UNL11       0.0480
     55 H           3.1171   -2.6660   -3.5613 H       1  UNL11       0.0480
@<TRIPOS>BOND
     1     1     2    2
     2     2     3    1
     3     2    22   am
     4     3     4   ar
     5     4     5   ar
     6     4    33    1
     7     5     6    1
     8     5    18   ar
     9     6     7    1
    10     6    34    1
    11     6    35    1
    12     7     8    2
    13     8     9    1
    14     9    10   am
    15     9    36    1
    16    10    11    2
    17    10    12    1
    18    12    13   ar
    19    13    14   ar
    20    13    37    1
    21    14    15   ar
    22    14    38    1
    23    15    16   ar
    24    15    39    1
    25    16    17   ar
    26    16    40    1
    27    17     7    1
    28    17    12   ar
    29    18    19   ar
    30    18    41    1
    31    19    20   ar
    32    19    42    1
    33    20    21    1
    34    20     3   ar
    35    22    23    1
    36    23    24    1
    37    23    43    1
    38    23    44    1
    39    24    25    1
    40    24    45    1
    41    24    46    1
    42    25    26   am
    43    25    31    1
    44    26    27    2
    45    26    28    1
    46    28    29    1
    47    28    47    1
    48    29    30    1
    49    29    48    1
    50    29    49    1
    51    30    28    1
    52    30    50    1
    53    30    51    1
    54    31    32    1
    55    31    52    1
    56    31    53    1
    57    32    22    1
    58    32    54    1
    59    32    55    1
@<TRIPOS>MOLECULE
*****
 55 59 0 0 0
SMALL
GASTEIGER

@<TRIPOS>ATOM
      1 O           1.9677   -2.1802   -0.3001 O.2     1  UNL11      -0.2699
      2 C           1.0344   -2.2581   -1.1629 C.2     1  UNL11       0.2495
      3 C          -0.2898   -2.5068   -0.6383 C.ar    1  UNL11       0.0723
      4 C          -1.4526   -2.0533   -1.2326 C.ar    1  UNL11      -0.0433
      5 C          -2.6998   -2.2999   -0.7200 C.ar    1  UNL11      -0.0405
      6 C          -3.9822   -1.8218   -1.3112 C.3     1  UNL11       0.0211
      7 C          -3.8421   -0.5396   -2.0492 C.2     1  UNL11       0.1192
      8 N          -4.5765    0.5458   -1.6311 N.2     1  UNL11      -0.0073
      9 N          -4.4844    1.7252   -2.1986 N.am    1  UNL11      -0.0356
     10 C          -3.6704    1.9811   -3.2336 C.2     1  UNL11       0.4383
     11 O          -3.5747    3.1017   -3.7810 O.2     1  UNL11      -0.2116
     12 C          -2.8895    0.9271   -3.7194 C.ar    1  UNL11       0.1004
     13 C          -2.0437    1.1200   -4.7847 C.ar    1  UNL11      -0.0441
     14 C          -1.2840    0.0812   -5.2718 C.ar    1  UNL11      -0.0608
     15 C          -1.4008   -1.1480   -4.6591 C.ar    1  UNL11      -0.0611
     16 C          -2.2331   -1.3860   -3.5917 C.ar    1  UNL11      -0.0518
     17 C          -2.9938   -0.3171   -3.1128 C.ar    1  UNL11       0.0192
     18 C          -2.8265   -3.0465    0.4628 C.ar    1  UNL11      -0.0555
     19 C          -1.6833   -3.5058    1.0677 C.ar    1  UNL11      -0.0254
     20 C          -0.4343   -3.2365    0.5202 C.ar    1  UNL11       0.1355
     21 F           0.6403   -3.7151    1.1625 F       1  UNL11      -0.2047
     22 N           1.3541   -2.1013   -2.5140 N.am    1  UNL11      -0.2945
     23 C           0.3394   -2.1620   -3.5435 C.3     1  UNL11       0.0308
     24 C           0.4134   -1.0154   -4.5268 C.3     1  UNL11       0.0305
     25 N           1.8054   -0.7807   -4.8752 N.am    1  UNL11      -0.2983
     26 C           2.1682   -0.7463   -6.2347 C.2     1  UNL11       0.2187
     27 O           1.2772   -0.9203   -7.1367 O.2     1  UNL11      -0.2753
     28 C           3.5337   -0.5191   -6.7144 C.3     1  UNL11       0.0358
     29 C           3.7683    0.1417   -8.0335 C.3     1  UNL11      -0.0412
     30 C           3.9215   -1.3197   -7.9219 C.3     1  UNL11      -0.0412
     31 C           2.7150   -0.5981   -3.7688 C.3     1  UNL11       0.0305
     32 C           2.7265   -1.8714   -2.9111 C.3     1  UNL11       0.0308
     33 H          -1.3583   -1.4859   -2.1545 H       1  UNL11       0.0629
     34 H          -4.4265   -2.5830   -1.9944 H       1  UNL11       0.0379
     35 H          -4.7363   -1.6248   -0.4902 H       1  UNL11       0.0379
     36 H          -5.0569    2.5571   -1.8674 H       1  UNL11       0.4829
     37 H          -2.0016    2.1269   -5.2244 H       1  UNL11       0.0627
     38 H          -0.6241    0.2694   -6.1175 H       1  UNL11       0.0618
     39 H          -0.8132   -1.9659   -5.0309 H       1  UNL11       0.0618
     40 H          -2.3338   -2.3404   -3.1268 H       1  UNL11       0.0624
     41 H          -3.8121   -3.2518    0.8835 H       1  UNL11       0.0621
     42 H          -1.7461   -4.0885    1.9871 H       1  UNL11       0.0646
     43 H          -0.6915   -2.1304   -3.1080 H       1  UNL11       0.0480
     44 H           0.4898   -3.1014   -4.1419 H       1  UNL11       0.0480
     45 H          -0.1263   -1.3245   -5.4252 H       1  UNL11       0.0480
     46 H          -0.0546   -0.1315   -4.0533 H       1  UNL11       0.0480
     47 H           4.3169   -0.3660   -5.9560 H       1  UNL11       0.0394
     48 H           2.9007    0.5532   -8.6001 H       1  UNL11       0.0273
     49 H           4.6833    0.7507   -8.1371 H       1  UNL11       0.0273
     50 H           4.8987   -1.8269   -7.8766 H       1  UNL11       0.0273
     51 H           3.1512   -1.9178   -8.4659 H       1  UNL11       0.0273
     52 H           3.7325   -0.3442   -4.0624 H       1  UNL11       0.0480
     53 H           2.3146    0.2113   -3.0911 H       1  UNL11       0.0480
     54 H           3.3983   -1.6800   -2.0634 H       1  UNL11       0.0480
     55 H           3.1171   -2.6660   -3.5613 H       1  UNL11       0.0480
@<TRIPOS>BOND
     1     1     2    2
     2     2     3    1
     3     2    22   am
     4     3     4   ar
     5     4     5   ar
     6     4    33    1
     7     5     6    1
     8     5    18   ar
     9     6     7    1
    10     6    34    1
    11     6    35    1
    12     7     8    2
    13     8     9    1
    14     9    10   am
    15     9    36    1
    16    10    11    2
    17    10    12    1
    18    12    13   ar
    19    13    14   ar
    20    13    37    1
    21    14    15   ar
    22    14    38    1
    23    15    16   ar
    24    15    39    1
    25    16    17   ar
    26    16    40    1
    27    17     7    1
    28    17    12   ar
    29    18    19   ar
    30    18    41    1
    31    19    20   ar
    32    19    42    1
    33    20    21    1
    34    20     3   ar
    35    22    23    1
    36    23    24    1
    37    23    43    1
    38    23    44    1
    39    24    25    1
    40    24    45    1
    41    24    46    1
    42    25    26   am
    43    25    31    1
    44    26    27    2
    45    26    28    1
    46    28    29    1
    47    28    47    1
    48    29    30    1
    49    29    48    1
    50    29    49    1
    51    30    28    1
    52    30    50    1
    53    30    51    1
    54    31    32    1
    55    31    52    1
    56    31    53    1
    57    32    22    1
    58    32    54    1
    59    32    55    1
@<TRIPOS>MOLECULE
*****
 55 59 0 0 0
SMALL
GASTEIGER

@<TRIPOS>ATOM
      1 O           1.9677   -2.1802   -0.3001 O.2     1  UNL11      -0.2699
      2 C           1.0344   -2.2581   -1.1629 C.2     1  UNL11       0.2495
      3 C          -0.2898   -2.5068   -0.6383 C.ar    1  UNL11       0.0723
      4 C          -1.4526   -2.0533   -1.2326 C.ar    1  UNL11      -0.0433
      5 C          -2.6998   -2.2999   -0.7200 C.ar    1  UNL11      -0.0405
      6 C          -3.9822   -1.8218   -1.3112 C.3     1  UNL11       0.0211
      7 C          -4.9005   -2.9286   -1.6854 C.2     1  UNL11       0.1192
      8 N          -4.8478   -4.1007   -0.9673 N.2     1  UNL11      -0.0073
      9 N          -5.6485   -5.1131   -1.2029 N.am    1  UNL11      -0.0356
     10 C          -6.5876   -5.0998   -2.1608 C.2     1  UNL11       0.4383
     11 O          -7.3561   -6.0590   -2.3928 O.2     1  UNL11      -0.2116
     12 C          -6.7042   -3.9422   -2.9373 C.ar    1  UNL11       0.1004
     13 C          -7.6382   -3.8684   -3.9422 C.ar    1  UNL11      -0.0441
     14 C          -7.7460   -2.7353   -4.7153 C.ar    1  UNL11      -0.0608
     15 C          -6.8918   -1.6868   -4.4484 C.ar    1  UNL11      -0.0611
     16 C          -5.9436   -1.7169   -3.4541 C.ar    1  UNL11      -0.0518
     17 C          -5.8526   -2.8764   -2.6808 C.ar    1  UNL11       0.0192
     18 C          -2.8265   -3.0465    0.4628 C.ar    1  UNL11      -0.0555
     19 C          -1.6833   -3.5058    1.0677 C.ar    1  UNL11      -0.0254
     20 C          -0.4343   -3.2365    0.5202 C.ar    1  UNL11       0.1355
     21 F           0.6403   -3.7151    1.1625 F       1  UNL11      -0.2047
     22 N           1.3541   -2.1013   -2.5140 N.am    1  UNL11      -0.2945
     23 C           0.3394   -2.1620   -3.5435 C.3     1  UNL11       0.0308
     24 C           0.4134   -1.0154   -4.5268 C.3     1  UNL11       0.0305
     25 N           1.8054   -0.7807   -4.8752 N.am    1  UNL11      -0.2983
     26 C           2.1682   -0.7463   -6.2347 C.2     1  UNL11       0.2187
     27 O           1.2772   -0.9203   -7.1367 O.2     1  UNL11      -0.2753
     28 C           3.5337   -0.5191   -6.7144 C.3     1  UNL11       0.0358
     29 C           3.7998    0.4995   -7.7744 C.3     1  UNL11      -0.0412
     30 C           3.7814   -0.9291   -8.1357 C.3     1  UNL11      -0.0412
     31 C           2.7150   -0.5981   -3.7688 C.3     1  UNL11       0.0305
     32 C           2.7265   -1.8714   -2.9111 C.3     1  UNL11       0.0308
     33 H          -1.3583   -1.4859   -2.1545 H       1  UNL11       0.0629
     34 H          -4.5174   -1.1285   -0.6209 H       1  UNL11       0.0379
     35 H          -3.7779   -1.2531   -2.2684 H       1  UNL11       0.0379
     36 H          -5.5989   -6.0143   -0.6418 H       1  UNL11       0.4829
     37 H          -8.2862   -4.7428   -4.0989 H       1  UNL11       0.0627
     38 H          -8.4974   -2.7108   -5.5032 H       1  UNL11       0.0618
     39 H          -6.9666   -0.7978   -5.0455 H       1  UNL11       0.0618
     40 H          -5.2734   -0.9112   -3.2570 H       1  UNL11       0.0624
     41 H          -3.8121   -3.2518    0.8835 H       1  UNL11       0.0621
     42 H          -1.7461   -4.0885    1.9871 H       1  UNL11       0.0646
     43 H          -0.6915   -2.1304   -3.1080 H       1  UNL11       0.0480
     44 H           0.4898   -3.1014   -4.1419 H       1  UNL11       0.0480
     45 H          -0.1263   -1.3245   -5.4252 H       1  UNL11       0.0480
     46 H          -0.0546   -0.1315   -4.0533 H       1  UNL11       0.0480
     47 H           4.3552   -0.6961   -6.0032 H       1  UNL11       0.0394
     48 H           2.9685    1.1562   -8.1216 H       1  UNL11       0.0273
     49 H           4.7768    1.0128   -7.7468 H       1  UNL11       0.0273
     50 H           4.6921   -1.5214   -8.3199 H       1  UNL11       0.0273
     51 H           2.9270   -1.2410   -8.7835 H       1  UNL11       0.0273
     52 H           3.7325   -0.3442   -4.0624 H       1  UNL11       0.0480
     53 H           2.3146    0.2113   -3.0911 H       1  UNL11       0.0480
     54 H           3.3983   -1.6800   -2.0634 H       1  UNL11       0.0480
     55 H           3.1171   -2.6660   -3.5613 H       1  UNL11       0.0480
@<TRIPOS>BOND
     1     1     2    2
     2     2     3    1
     3     2    22   am
     4     3     4   ar
     5     4     5   ar
     6     4    33    1
     7     5     6    1
     8     5    18   ar
     9     6     7    1
    10     6    34    1
    11     6    35    1
    12     7     8    2
    13     8     9    1
    14     9    10   am
    15     9    36    1
    16    10    11    2
    17    10    12    1
    18    12    13   ar
    19    13    14   ar
    20    13    37    1
    21    14    15   ar
    22    14    38    1
    23    15    16   ar
    24    15    39    1
    25    16    17   ar
    26    16    40    1
    27    17     7    1
    28    17    12   ar
    29    18    19   ar
    30    18    41    1
    31    19    20   ar
    32    19    42    1
    33    20    21    1
    34    20     3   ar
    35    22    23    1
    36    23    24    1
    37    23    43    1
    38    23    44    1
    39    24    25    1
    40    24    45    1
    41    24    46    1
    42    25    26   am
    43    25    31    1
    44    26    27    2
    45    26    28    1
    46    28    29    1
    47    28    47    1
    48    29    30    1
    49    29    48    1
    50    29    49    1
    51    30    28    1
    52    30    50    1
    53    30    51    1
    54    31    32    1
    55    31    52    1
    56    31    53    1
    57    32    22    1
    58    32    54    1
    59    32    55    1
@<TRIPOS>MOLECULE
*****
 55 59 0 0 0
SMALL
GASTEIGER

@<TRIPOS>ATOM
      1 O           1.9677   -2.1802   -0.3001 O.2     1  UNL11      -0.2699
      2 C           1.0344   -2.2581   -1.1629 C.2     1  UNL11       0.2495
      3 C          -0.2898   -2.5068   -0.6383 C.ar    1  UNL11       0.0723
      4 C          -1.4526   -2.0533   -1.2326 C.ar    1  UNL11      -0.0433
      5 C          -2.6998   -2.2999   -0.7200 C.ar    1  UNL11      -0.0405
      6 C          -3.9822   -1.8218   -1.3112 C.3     1  UNL11       0.0211
      7 C          -5.0403   -1.5845   -0.2951 C.2     1  UNL11       0.1192
      8 N          -5.9802   -0.6096   -0.5368 N.2     1  UNL11      -0.0073
      9 N          -6.9715   -0.3610    0.2860 N.am    1  UNL11      -0.0356
     10 C          -7.1596   -1.0302    1.4333 C.2     1  UNL11       0.4383
     11 O          -8.1015   -0.8015    2.2239 O.2     1  UNL11      -0.2116
     12 C          -6.2441   -2.0385    1.7525 C.ar    1  UNL11       0.1004
     13 C          -6.3736   -2.7535    2.9185 C.ar    1  UNL11      -0.0441
     14 C          -5.4668   -3.7371    3.2402 C.ar    1  UNL11      -0.0608
     15 C          -4.4337   -3.9773    2.3598 C.ar    1  UNL11      -0.0611
     16 C          -4.2657   -3.2872    1.1832 C.ar    1  UNL11      -0.0518
     17 C          -5.1985   -2.2941    0.8761 C.ar    1  UNL11       0.0192
     18 C          -2.8265   -3.0465    0.4628 C.ar    1  UNL11      -0.0555
     19 C          -1.6833   -3.5058    1.0677 C.ar    1  UNL11      -0.0254
     20 C          -0.4343   -3.2365    0.5202 C.ar    1  UNL11       0.1355
     21 F           0.6403   -3.7151    1.1625 F       1  UNL11      -0.2047
     22 N           1.3541   -2.1013   -2.5140 N.am    1  UNL11      -0.2945
     23 C           0.3394   -2.1620   -3.5435 C.3     1  UNL11       0.0308
     24 C           0.4134   -1.0154   -4.5268 C.3     1  UNL11       0.0305
     25 N           1.8054   -0.7807   -4.8752 N.am    1  UNL11      -0.2983
     26 C           2.1682   -0.7463   -6.2347 C.2     1  UNL11       0.2187
     27 O           3.3901   -0.5547   -6.5635 O.2     1  UNL11      -0.2753
     28 C           1.2235   -0.9187   -7.3411 C.3     1  UNL11       0.0358
     29 C           1.7233   -1.0871   -8.7388 C.3     1  UNL11      -0.0412
     30 C           1.1809    0.2173   -8.3195 C.3     1  UNL11      -0.0412
     31 C           2.7150   -0.5981   -3.7688 C.3     1  UNL11       0.0305
     32 C           2.7265   -1.8714   -2.9111 C.3     1  UNL11       0.0308
     33 H          -1.3583   -1.4859   -2.1545 H       1  UNL11       0.0629
     34 H          -3.8366   -0.8881   -1.9033 H       1  UNL11       0.0379
     35 H          -4.3992   -2.6050   -2.0141 H       1  UNL11       0.0379
     36 H          -7.6921    0.3949    0.0893 H       1  UNL11       0.4829
     37 H          -7.2218   -2.5081    3.5737 H       1  UNL11       0.0627
     38 H          -5.5996   -4.2845    4.1724 H       1  UNL11       0.0618
     39 H          -3.7200   -4.7422    2.6006 H       1  UNL11       0.0618
     40 H          -3.4585   -3.4634    0.5091 H       1  UNL11       0.0624
     41 H          -3.8121   -3.2518    0.8835 H       1  UNL11       0.0621
     42 H          -1.7461   -4.0885    1.9871 H       1  UNL11       0.0646
     43 H          -0.6915   -2.1304   -3.1080 H       1  UNL11       0.0480
     44 H           0.4898   -3.1014   -4.1419 H       1  UNL11       0.0480
     45 H          -0.1263   -1.3245   -5.4252 H       1  UNL11       0.0480
     46 H          -0.0546   -0.1315   -4.0533 H       1  UNL11       0.0480
     47 H           0.2628   -1.4059   -7.1140 H       1  UNL11       0.0394
     48 H           2.8193   -1.1849   -8.9187 H       1  UNL11       0.0273
     49 H           1.1140   -1.7047   -9.4215 H       1  UNL11       0.0273
     50 H           0.1792    0.5787   -8.6026 H       1  UNL11       0.0273
     51 H           1.9321    1.0409   -8.2514 H       1  UNL11       0.0273
     52 H           3.7325   -0.3442   -4.0624 H       1  UNL11       0.0480
     53 H           2.3146    0.2113   -3.0911 H       1  UNL11       0.0480
     54 H           3.3983   -1.6800   -2.0634 H       1  UNL11       0.0480
     55 H           3.1171   -2.6660   -3.5613 H       1  UNL11       0.0480
@<TRIPOS>BOND
     1     1     2    2
     2     2     3    1
     3     2    22   am
     4     3     4   ar
     5     4     5   ar
     6     4    33    1
     7     5     6    1
     8     5    18   ar
     9     6     7    1
    10     6    34    1
    11     6    35    1
    12     7     8    2
    13     8     9    1
    14     9    10   am
    15     9    36    1
    16    10    11    2
    17    10    12    1
    18    12    13   ar
    19    13    14   ar
    20    13    37    1
    21    14    15   ar
    22    14    38    1
    23    15    16   ar
    24    15    39    1
    25    16    17   ar
    26    16    40    1
    27    17     7    1
    28    17    12   ar
    29    18    19   ar
    30    18    41    1
    31    19    20   ar
    32    19    42    1
    33    20    21    1
    34    20     3   ar
    35    22    23    1
    36    23    24    1
    37    23    43    1
    38    23    44    1
    39    24    25    1
    40    24    45    1
    41    24    46    1
    42    25    26   am
    43    25    31    1
    44    26    27    2
    45    26    28    1
    46    28    29    1
    47    28    47    1
    48    29    30    1
    49    29    48    1
    50    29    49    1
    51    30    28    1
    52    30    50    1
    53    30    51    1
    54    31    32    1
    55    31    52    1
    56    31    53    1
    57    32    22    1
    58    32    54    1
    59    32    55    1
@<TRIPOS>MOLECULE
*****
 55 59 0 0 0
SMALL
GASTEIGER

@<TRIPOS>ATOM
      1 O           1.9048   -3.1557   -0.9214 O.2     1  UNL11      -0.2699
      2 C           1.0344   -2.2581   -1.1629 C.2     1  UNL11       0.2495
      3 C          -0.2898   -2.5068   -0.6383 C.ar    1  UNL11       0.0723
      4 C          -1.4526   -2.0533   -1.2326 C.ar    1  UNL11      -0.0433
      5 C          -2.6998   -2.2999   -0.7200 C.ar    1  UNL11      -0.0405
      6 C          -3.9822   -1.8218   -1.3112 C.3     1  UNL11       0.0211
      7 C          -5.1224   -2.7383   -1.0500 C.2     1  UNL11       0.1192
      8 N          -5.4851   -2.9853    0.2537 N.2     1  UNL11      -0.0073
      9 N          -6.5032   -3.7484    0.5740 N.am    1  UNL11      -0.0356
     10 C          -7.2808   -4.3557   -0.3348 C.2     1  UNL11       0.4383
     11 O          -8.2539   -5.0842   -0.0400 O.2     1  UNL11      -0.2116
     12 C          -6.9763   -4.1552   -1.6853 C.ar    1  UNL11       0.1004
     13 C          -7.7266   -4.7581   -2.6656 C.ar    1  UNL11      -0.0441
     14 C          -7.4209   -4.5721   -3.9943 C.ar    1  UNL11      -0.0608
     15 C          -6.3454   -3.7674   -4.3038 C.ar    1  UNL11      -0.0611
     16 C          -5.5681   -3.1450   -3.3567 C.ar    1  UNL11      -0.0518
     17 C          -5.8972   -3.3465   -2.0145 C.ar    1  UNL11       0.0192
     18 C          -2.8265   -3.0465    0.4628 C.ar    1  UNL11      -0.0555
     19 C          -1.6833   -3.5058    1.0677 C.ar    1  UNL11      -0.0254
     20 C          -0.4343   -3.2365    0.5202 C.ar    1  UNL11       0.1355
     21 F           0.6403   -3.7151    1.1625 F       1  UNL11      -0.2047
     22 N           1.4166   -1.1322   -1.8968 N.am    1  UNL11      -0.2945
     23 C           2.7692   -0.9698   -2.3836 C.3     1  UNL11       0.0308
     24 C           2.8387   -0.5850   -3.8445 C.3     1  UNL11       0.0305
     25 N           1.8303    0.4269   -4.1151 N.am    1  UNL11      -0.2983
     26 C           2.2221    1.6251   -4.7412 C.2     1  UNL11       0.2187
     27 O           1.3533    2.5349   -4.9765 O.2     1  UNL11      -0.2753
     28 C           3.5944    1.9223   -5.1593 C.3     1  UNL11       0.0358
     29 C           4.5111    0.8181   -5.5742 C.3     1  UNL11      -0.0412
     30 C           4.6612    1.4149   -4.2352 C.3     1  UNL11      -0.0412
     31 C           0.4826    0.1054   -3.7085 C.3     1  UNL11       0.0305
     32 C           0.4501   -0.0949   -2.1868 C.3     1  UNL11       0.0308
     33 H          -1.3583   -1.4859   -2.1545 H       1  UNL11       0.0629
     34 H          -4.2479   -0.8034   -0.9426 H       1  UNL11       0.0379
     35 H          -3.8885   -1.7587   -2.4375 H       1  UNL11       0.0379
     36 H          -6.7744   -3.9325    1.5849 H       1  UNL11       0.4829
     37 H          -8.5701   -5.3868   -2.3458 H       1  UNL11       0.0627
     38 H          -8.0368   -5.0649   -4.7453 H       1  UNL11       0.0618
     39 H          -6.0974   -3.6155   -5.3372 H       1  UNL11       0.0618
     40 H          -4.7275   -2.5339   -3.5959 H       1  UNL11       0.0624
     41 H          -3.8121   -3.2518    0.8835 H       1  UNL11       0.0621
     42 H          -1.7461   -4.0885    1.9871 H       1  UNL11       0.0646
     43 H           3.3591   -1.9162   -2.2844 H       1  UNL11       0.0480
     44 H           3.2590   -0.1343   -1.8133 H       1  UNL11       0.0480
     45 H           3.8266   -0.1516   -4.0181 H       1  UNL11       0.0480
     46 H           2.6837   -1.5016   -4.4447 H       1  UNL11       0.0480
     47 H           3.7786    2.9002   -5.6301 H       1  UNL11       0.0394
     48 H           4.1116   -0.2190   -5.6628 H       1  UNL11       0.0273
     49 H           5.2755    1.0558   -6.3344 H       1  UNL11       0.0273
     50 H           5.4587    2.1288   -3.9737 H       1  UNL11       0.0273
     51 H           4.3902    0.7424   -3.3858 H       1  UNL11       0.0273
     52 H          -0.2614    0.8464   -3.9972 H       1  UNL11       0.0480
     53 H           0.1940   -0.8952   -4.1447 H       1  UNL11       0.0480
     54 H          -0.5791   -0.3733   -1.9227 H       1  UNL11       0.0480
     55 H           0.7276    0.8749   -1.7518 H       1  UNL11       0.0480
@<TRIPOS>BOND
     1     1     2    2
     2     2     3    1
     3     2    22   am
     4     3     4   ar
     5     4     5   ar
     6     4    33    1
     7     5     6    1
     8     5    18   ar
     9     6     7    1
    10     6    34    1
    11     6    35    1
    12     7     8    2
    13     8     9    1
    14     9    10   am
    15     9    36    1
    16    10    11    2
    17    10    12    1
    18    12    13   ar
    19    13    14   ar
    20    13    37    1
    21    14    15   ar
    22    14    38    1
    23    15    16   ar
    24    15    39    1
    25    16    17   ar
    26    16    40    1
    27    17     7    1
    28    17    12   ar
    29    18    19   ar
    30    18    41    1
    31    19    20   ar
    32    19    42    1
    33    20    21    1
    34    20     3   ar
    35    22    23    1
    36    23    24    1
    37    23    43    1
    38    23    44    1
    39    24    25    1
    40    24    45    1
    41    24    46    1
    42    25    26   am
    43    25    31    1
    44    26    27    2
    45    26    28    1
    46    28    29    1
    47    28    47    1
    48    29    30    1
    49    29    48    1
    50    29    49    1
    51    30    28    1
    52    30    50    1
    53    30    51    1
    54    31    32    1
    55    31    52    1
    56    31    53    1
    57    32    22    1
    58    32    54    1
    59    32    55    1
@<TRIPOS>MOLECULE
*****
 55 59 0 0 0
SMALL
GASTEIGER

@<TRIPOS>ATOM
      1 O           1.0869   -1.5770   -2.2376 O.2     1  UNL11      -0.2699
      2 C           1.0344   -2.2581   -1.1629 C.2     1  UNL11       0.2495
      3 C          -0.2898   -2.5068   -0.6383 C.ar    1  UNL11       0.0723
      4 C          -1.4526   -2.0533   -1.2326 C.ar    1  UNL11      -0.0433
      5 C          -2.6998   -2.2999   -0.7200 C.ar    1  UNL11      -0.0405
      6 C          -3.9822   -1.8218   -1.3112 C.3     1  UNL11       0.0211
      7 C          -5.1752   -2.2309   -0.5253 C.2     1  UNL11       0.1192
      8 N          -4.9894   -2.9753    0.6165 N.2     1  UNL11      -0.0073
      9 N          -5.9818   -3.3448    1.3912 N.am    1  UNL11      -0.0356
     10 C          -7.2628   -3.0333    1.1434 C.2     1  UNL11       0.4383
     11 O          -8.2157   -3.3799    1.8757 O.2     1  UNL11      -0.2116
     12 C          -7.5357   -2.2777   -0.0018 C.ar    1  UNL11       0.1004
     13 C          -8.8278   -1.9351   -0.3189 C.ar    1  UNL11      -0.0441
     14 C          -9.0993   -1.2026   -1.4517 C.ar    1  UNL11      -0.0608
     15 C          -8.0392   -0.8286   -2.2494 C.ar    1  UNL11      -0.0611
     16 C          -6.7321   -1.1488   -1.9709 C.ar    1  UNL11      -0.0518
     17 C          -6.4794   -1.8916   -0.8155 C.ar    1  UNL11       0.0192
     18 C          -2.8265   -3.0465    0.4628 C.ar    1  UNL11      -0.0555
     19 C          -1.6833   -3.5058    1.0677 C.ar    1  UNL11      -0.0254
     20 C          -0.4343   -3.2365    0.5202 C.ar    1  UNL11       0.1355
     21 F           0.6403   -3.7151    1.1625 F       1  UNL11      -0.2047
     22 N           2.2292   -2.7005   -0.5892 N.am    1  UNL11      -0.2945
     23 C           2.2393   -3.4921    0.6217 C.3     1  UNL11       0.0308
     24 C           3.1115   -4.7238    0.5258 C.3     1  UNL11       0.0305
     25 N           4.3572   -4.3704   -0.1356 N.am    1  UNL11      -0.2983
     26 C           5.5746   -4.6963    0.4911 C.2     1  UNL11       0.2187
     27 O           5.5688   -5.2932    1.6232 O.2     1  UNL11      -0.2753
     28 C           6.8937   -4.3950   -0.0707 C.3     1  UNL11       0.0358
     29 C           7.0850   -3.1974   -0.9429 C.3     1  UNL11      -0.0412
     30 C           6.9928   -4.5319   -1.5610 C.3     1  UNL11      -0.0412
     31 C           4.2327   -3.7007   -1.4088 C.3     1  UNL11       0.0305
     32 C           3.4950   -2.3695   -1.2074 C.3     1  UNL11       0.0308
     33 H          -1.3583   -1.4859   -2.1545 H       1  UNL11       0.0629
     34 H          -3.9909   -0.7127   -1.4267 H       1  UNL11       0.0379
     35 H          -4.1230   -2.2690   -2.3415 H       1  UNL11       0.0379
     36 H          -5.8267   -3.9201    2.2712 H       1  UNL11       0.4829
     37 H          -9.6237   -2.2675    0.3629 H       1  UNL11       0.0627
     38 H         -10.1350   -0.9484   -1.6728 H       1  UNL11       0.0618
     39 H          -8.2392   -0.2572   -3.1360 H       1  UNL11       0.0618
     40 H          -5.9135   -0.8716   -2.5956 H       1  UNL11       0.0624
     41 H          -3.8121   -3.2518    0.8835 H       1  UNL11       0.0621
     42 H          -1.7461   -4.0885    1.9871 H       1  UNL11       0.0646
     43 H           1.2141   -3.8583    0.8830 H       1  UNL11       0.0480
     44 H           2.6635   -2.8689    1.4553 H       1  UNL11       0.0480
     45 H           3.3342   -5.0427    1.5469 H       1  UNL11       0.0480
     46 H           2.5472   -5.4968   -0.0295 H       1  UNL11       0.0480
     47 H           7.7742   -4.7104    0.5099 H       1  UNL11       0.0394
     48 H           6.2426   -2.4794   -1.0772 H       1  UNL11       0.0273
     49 H           8.0739   -2.7072   -0.9170 H       1  UNL11       0.0273
     50 H           7.8651   -5.0871   -1.9419 H       1  UNL11       0.0273
     51 H           6.0720   -4.7084   -2.1677 H       1  UNL11       0.0273
     52 H           5.1798   -3.5225   -1.9159 H       1  UNL11       0.0480
     53 H           3.5633   -4.3107   -2.0830 H       1  UNL11       0.0480
     54 H           3.3877   -1.9100   -2.1993 H       1  UNL11       0.0480
     55 H           4.1398   -1.7666   -0.5535 H       1  UNL11       0.0480
@<TRIPOS>BOND
     1     1     2    2
     2     2     3    1
     3     2    22   am
     4     3     4   ar
     5     4     5   ar
     6     4    33    1
     7     5     6    1
     8     5    18   ar
     9     6     7    1
    10     6    34    1
    11     6    35    1
    12     7     8    2
    13     8     9    1
    14     9    10   am
    15     9    36    1
    16    10    11    2
    17    10    12    1
    18    12    13   ar
    19    13    14   ar
    20    13    37    1
    21    14    15   ar
    22    14    38    1
    23    15    16   ar
    24    15    39    1
    25    16    17   ar
    26    16    40    1
    27    17     7    1
    28    17    12   ar
    29    18    19   ar
    30    18    41    1
    31    19    20   ar
    32    19    42    1
    33    20    21    1
    34    20     3   ar
    35    22    23    1
    36    23    24    1
    37    23    43    1
    38    23    44    1
    39    24    25    1
    40    24    45    1
    41    24    46    1
    42    25    26   am
    43    25    31    1
    44    26    27    2
    45    26    28    1
    46    28    29    1
    47    28    47    1
    48    29    30    1
    49    29    48    1
    50    29    49    1
    51    30    28    1
    52    30    50    1
    53    30    51    1
    54    31    32    1
    55    31    52    1
    56    31    53    1
    57    32    22    1
    58    32    54    1
    59    32    55    1
@<TRIPOS>MOLECULE
*****
 55 59 0 0 0
SMALL
GASTEIGER

@<TRIPOS>ATOM
      1 O           1.0869   -1.5770   -2.2376 O.2     1  UNL11      -0.2699
      2 C           1.0344   -2.2581   -1.1629 C.2     1  UNL11       0.2495
      3 C          -0.2898   -2.5068   -0.6383 C.ar    1  UNL11       0.0723
      4 C          -1.4526   -2.0533   -1.2326 C.ar    1  UNL11      -0.0433
      5 C          -2.6998   -2.2999   -0.7200 C.ar    1  UNL11      -0.0405
      6 C          -3.9822   -1.8218   -1.3112 C.3     1  UNL11       0.0211
      7 C          -5.1752   -2.2309   -0.5253 C.2     1  UNL11       0.1192
      8 N          -5.9938   -1.2523   -0.0110 N.2     1  UNL11      -0.0073
      9 N          -7.0883   -1.5237    0.6597 N.am    1  UNL11      -0.0356
     10 C          -7.5086   -2.7737    0.9054 C.2     1  UNL11       0.4383
     11 O          -8.5506   -3.0429    1.5428 O.2     1  UNL11      -0.2116
     12 C          -6.7291   -3.8270    0.4159 C.ar    1  UNL11       0.1004
     13 C          -7.0980   -5.1308    0.6431 C.ar    1  UNL11      -0.0441
     14 C          -6.3259   -6.1683    0.1732 C.ar    1  UNL11      -0.0608
     15 C          -5.1801   -5.8561   -0.5267 C.ar    1  UNL11      -0.0611
     16 C          -4.7733   -4.5676   -0.7773 C.ar    1  UNL11      -0.0518
     17 C          -5.5728   -3.5301   -0.2923 C.ar    1  UNL11       0.0192
     18 C          -2.8265   -3.0465    0.4628 C.ar    1  UNL11      -0.0555
     19 C          -1.6833   -3.5058    1.0677 C.ar    1  UNL11      -0.0254
     20 C          -0.4343   -3.2365    0.5202 C.ar    1  UNL11       0.1355
     21 F           0.6403   -3.7151    1.1625 F       1  UNL11      -0.2047
     22 N           2.2292   -2.7005   -0.5892 N.am    1  UNL11      -0.2945
     23 C           2.2393   -3.4921    0.6217 C.3     1  UNL11       0.0308
     24 C           3.1115   -4.7238    0.5258 C.3     1  UNL11       0.0305
     25 N           4.3572   -4.3704   -0.1356 N.am    1  UNL11      -0.2983
     26 C           5.5746   -4.6963    0.4911 C.2     1  UNL11       0.2187
     27 O           5.5688   -5.2932    1.6232 O.2     1  UNL11      -0.2753
     28 C           6.8937   -4.3950   -0.0707 C.3     1  UNL11       0.0358
     29 C           7.9403   -5.4582   -0.1474 C.3     1  UNL11      -0.0412
     30 C           8.0252   -4.4382    0.9128 C.3     1  UNL11      -0.0412
     31 C           4.2327   -3.7007   -1.4088 C.3     1  UNL11       0.0305
     32 C           3.4950   -2.3695   -1.2074 C.3     1  UNL11       0.0308
     33 H          -1.3583   -1.4859   -2.1545 H       1  UNL11       0.0629
     34 H          -3.9909   -0.7127   -1.4267 H       1  UNL11       0.0379
     35 H          -4.1230   -2.2690   -2.3415 H       1  UNL11       0.0379
     36 H          -7.7134   -0.7594    1.0527 H       1  UNL11       0.4829
     37 H          -8.0243   -5.3057    1.2092 H       1  UNL11       0.0627
     38 H          -6.6479   -7.1896    0.3713 H       1  UNL11       0.0618
     39 H          -4.5697   -6.6575   -0.8977 H       1  UNL11       0.0618
     40 H          -3.8796   -4.3262   -1.3065 H       1  UNL11       0.0624
     41 H          -3.8121   -3.2518    0.8835 H       1  UNL11       0.0621
     42 H          -1.7461   -4.0885    1.9871 H       1  UNL11       0.0646
     43 H           1.2141   -3.8583    0.8830 H       1  UNL11       0.0480
     44 H           2.6635   -2.8689    1.4553 H       1  UNL11       0.0480
     45 H           3.3342   -5.0427    1.5469 H       1  UNL11       0.0480
     46 H           2.5472   -5.4968   -0.0295 H       1  UNL11       0.0480
     47 H           6.9468   -3.6138   -0.8446 H       1  UNL11       0.0394
     48 H           7.6761   -6.5055    0.1291 H       1  UNL11       0.0273
     49 H           8.6609   -5.3976   -0.9815 H       1  UNL11       0.0273
     50 H           8.7271   -3.5893    0.8850 H       1  UNL11       0.0273
     51 H           7.8503   -4.8182    1.9483 H       1  UNL11       0.0273
     52 H           5.1798   -3.5225   -1.9159 H       1  UNL11       0.0480
     53 H           3.5633   -4.3107   -2.0830 H       1  UNL11       0.0480
     54 H           3.3877   -1.9100   -2.1993 H       1  UNL11       0.0480
     55 H           4.1398   -1.7666   -0.5535 H       1  UNL11       0.0480
@<TRIPOS>BOND
     1     1     2    2
     2     2     3    1
     3     2    22   am
     4     3     4   ar
     5     4     5   ar
     6     4    33    1
     7     5     6    1
     8     5    18   ar
     9     6     7    1
    10     6    34    1
    11     6    35    1
    12     7     8    2
    13     8     9    1
    14     9    10   am
    15     9    36    1
    16    10    11    2
    17    10    12    1
    18    12    13   ar
    19    13    14   ar
    20    13    37    1
    21    14    15   ar
    22    14    38    1
    23    15    16   ar
    24    15    39    1
    25    16    17   ar
    26    16    40    1
    27    17     7    1
    28    17    12   ar
    29    18    19   ar
    30    18    41    1
    31    19    20   ar
    32    19    42    1
    33    20    21    1
    34    20     3   ar
    35    22    23    1
    36    23    24    1
    37    23    43    1
    38    23    44    1
    39    24    25    1
    40    24    45    1
    41    24    46    1
    42    25    26   am
    43    25    31    1
    44    26    27    2
    45    26    28    1
    46    28    29    1
    47    28    47    1
    48    29    30    1
    49    29    48    1
    50    29    49    1
    51    30    28    1
    52    30    50    1
    53    30    51    1
    54    31    32    1
    55    31    52    1
    56    31    53    1
    57    32    22    1
    58    32    54    1
    59    32    55    1
@<TRIPOS>MOLECULE
*****
 55 59 0 0 0
SMALL
GASTEIGER

@<TRIPOS>ATOM
      1 O           1.9979   -2.7600   -0.4987 O.2     1  UNL11      -0.2699
      2 C           1.0344   -2.2581   -1.1629 C.2     1  UNL11       0.2495
      3 C          -0.2898   -2.5068   -0.6383 C.ar    1  UNL11       0.0723
      4 C          -1.4526   -2.0533   -1.2326 C.ar    1  UNL11      -0.0433
      5 C          -2.6998   -2.2999   -0.7200 C.ar    1  UNL11      -0.0405
      6 C          -3.9822   -1.8218   -1.3112 C.3     1  UNL11       0.0211
      7 C          -3.7917   -1.0244   -2.5507 C.2     1  UNL11       0.1192
      8 N          -4.3667   -1.4714   -3.7176 N.2     1  UNL11      -0.0073
      9 N          -4.2833   -0.8102   -4.8477 N.am    1  UNL11      -0.0356
     10 C          -3.6330    0.3566   -4.9701 C.2     1  UNL11       0.4383
     11 O          -3.5483    0.9951   -6.0423 O.2     1  UNL11      -0.2116
     12 C          -3.0188    0.8788   -3.8268 C.ar    1  UNL11       0.1004
     13 C          -2.3270    2.0641   -3.8873 C.ar    1  UNL11      -0.0441
     14 C          -1.7116    2.5730   -2.7667 C.ar    1  UNL11      -0.0608
     15 C          -1.8128    1.8579   -1.5926 C.ar    1  UNL11      -0.0611
     16 C          -2.4941    0.6692   -1.4863 C.ar    1  UNL11      -0.0518
     17 C          -3.1122    0.1720   -2.6358 C.ar    1  UNL11       0.0192
     18 C          -2.8265   -3.0465    0.4628 C.ar    1  UNL11      -0.0555
     19 C          -1.6833   -3.5058    1.0677 C.ar    1  UNL11      -0.0254
     20 C          -0.4343   -3.2365    0.5202 C.ar    1  UNL11       0.1355
     21 F           0.6403   -3.7151    1.1625 F       1  UNL11      -0.2047
     22 N           1.3240   -1.5253   -2.3167 N.am    1  UNL11      -0.2945
     23 C           0.2778   -0.9148   -3.1078 C.3     1  UNL11       0.0308
     24 C           0.5501    0.5335   -3.4472 C.3     1  UNL11       0.0305
     25 N           1.9449    0.6741   -3.8333 N.am    1  UNL11      -0.2983
     26 C           2.2507    1.2985   -5.0571 C.2     1  UNL11       0.2187
     27 O           3.4710    1.4207   -5.4228 O.2     1  UNL11      -0.2753
     28 C           1.2462    1.8384   -5.9769 C.3     1  UNL11       0.0358
     29 C          -0.0457    2.3736   -5.4513 C.3     1  UNL11      -0.0412
     30 C          -0.0185    1.0379   -6.0732 C.3     1  UNL11      -0.0412
     31 C           2.9173    0.1489   -2.9041 C.3     1  UNL11       0.0305
     32 C           2.6967   -1.3620   -2.7450 C.3     1  UNL11       0.0308
     33 H          -1.3583   -1.4859   -2.1545 H       1  UNL11       0.0629
     34 H          -4.6721   -2.6697   -1.5318 H       1  UNL11       0.0379
     35 H          -4.5122   -1.1371   -0.5820 H       1  UNL11       0.0379
     36 H          -4.7315   -1.1651   -5.7436 H       1  UNL11       0.4829
     37 H          -2.2874    2.5806   -4.8572 H       1  UNL11       0.0627
     38 H          -1.1717    3.5151   -2.8503 H       1  UNL11       0.0618
     39 H          -1.3363    2.2451   -0.7120 H       1  UNL11       0.0618
     40 H          -2.5604    0.1091   -0.5813 H       1  UNL11       0.0624
     41 H          -3.8121   -3.2518    0.8835 H       1  UNL11       0.0621
     42 H          -1.7461   -4.0885    1.9871 H       1  UNL11       0.0646
     43 H          -0.7048   -0.9276   -2.5713 H       1  UNL11       0.0480
     44 H           0.2030   -1.4602   -4.0877 H       1  UNL11       0.0480
     45 H          -0.0788    0.7887   -4.3035 H       1  UNL11       0.0480
     46 H           0.2979    1.1435   -2.5592 H       1  UNL11       0.0480
     47 H           1.6093    2.2948   -6.9106 H       1  UNL11       0.0394
     48 H          -0.1954    2.4546   -4.3495 H       1  UNL11       0.0273
     49 H          -0.5177    3.1967   -6.0157 H       1  UNL11       0.0273
     50 H          -0.3889    0.8332   -7.0906 H       1  UNL11       0.0273
     51 H          -0.1953    0.1871   -5.3718 H       1  UNL11       0.0273
     52 H           3.9524    0.3414   -3.1822 H       1  UNL11       0.0480
     53 H           2.7238    0.5853   -1.8810 H       1  UNL11       0.0480
     54 H           3.4279   -1.7160   -2.0057 H       1  UNL11       0.0480
     55 H           2.8848   -1.7974   -3.7358 H       1  UNL11       0.0480
@<TRIPOS>BOND
     1     1     2    2
     2     2     3    1
     3     2    22   am
     4     3     4   ar
     5     4     5   ar
     6     4    33    1
     7     5     6    1
     8     5    18   ar
     9     6     7    1
    10     6    34    1
    11     6    35    1
    12     7     8    2
    13     8     9    1
    14     9    10   am
    15     9    36    1
    16    10    11    2
    17    10    12    1
    18    12    13   ar
    19    13    14   ar
    20    13    37    1
    21    14    15   ar
    22    14    38    1
    23    15    16   ar
    24    15    39    1
    25    16    17   ar
    26    16    40    1
    27    17     7    1
    28    17    12   ar
    29    18    19   ar
    30    18    41    1
    31    19    20   ar
    32    19    42    1
    33    20    21    1
    34    20     3   ar
    35    22    23    1
    36    23    24    1
    37    23    43    1
    38    23    44    1
    39    24    25    1
    40    24    45    1
    41    24    46    1
    42    25    26   am
    43    25    31    1
    44    26    27    2
    45    26    28    1
    46    28    29    1
    47    28    47    1
    48    29    30    1
    49    29    48    1
    50    29    49    1
    51    30    28    1
    52    30    50    1
    53    30    51    1
    54    31    32    1
    55    31    52    1
    56    31    53    1
    57    32    22    1
    58    32    54    1
    59    32    55    1
@<TRIPOS>MOLECULE
*****
 55 59 0 0 0
SMALL
GASTEIGER

@<TRIPOS>ATOM
      1 O           1.1158   -2.1311   -2.4273 O.2     1  UNL11      -0.2699
      2 C           1.0344   -2.2581   -1.1629 C.2     1  UNL11       0.2495
      3 C          -0.2898   -2.5068   -0.6383 C.ar    1  UNL11       0.0723
      4 C          -1.4526   -2.0533   -1.2326 C.ar    1  UNL11      -0.0433
      5 C          -2.6998   -2.2999   -0.7200 C.ar    1  UNL11      -0.0405
      6 C          -3.9822   -1.8218   -1.3112 C.3     1  UNL11       0.0211
      7 C          -5.1752   -2.2309   -0.5253 C.2     1  UNL11       0.1192
      8 N          -5.1223   -3.4036    0.1918 N.2     1  UNL11      -0.0073
      9 N          -6.1134   -3.8199    0.9441 N.am    1  UNL11      -0.0356
     10 C          -7.2643   -3.1449    1.0831 C.2     1  UNL11       0.4383
     11 O          -8.2145   -3.5326    1.7980 O.2     1  UNL11      -0.2116
     12 C          -7.3972   -1.9407    0.3838 C.ar    1  UNL11       0.1004
     13 C          -8.5552   -1.2069    0.4739 C.ar    1  UNL11      -0.0441
     14 C          -8.6926   -0.0284   -0.2230 C.ar    1  UNL11      -0.0608
     15 C          -7.6375    0.3857   -1.0075 C.ar    1  UNL11      -0.0611
     16 C          -6.4618   -0.3159   -1.1270 C.ar    1  UNL11      -0.0518
     17 C          -6.3435   -1.5084   -0.4097 C.ar    1  UNL11       0.0192
     18 C          -2.8265   -3.0465    0.4628 C.ar    1  UNL11      -0.0555
     19 C          -1.6833   -3.5058    1.0677 C.ar    1  UNL11      -0.0254
     20 C          -0.4343   -3.2365    0.5202 C.ar    1  UNL11       0.1355
     21 F           0.6403   -3.7151    1.1625 F       1  UNL11      -0.2047
     22 N           2.2005   -2.1501   -0.4007 N.am    1  UNL11      -0.2945
     23 C           3.4855   -1.8978   -1.0155 C.3     1  UNL11       0.0308
     24 C           4.2605   -0.7831   -0.3493 C.3     1  UNL11       0.0305
     25 N           4.1477   -0.9256    1.0932 N.am    1  UNL11      -0.2983
     26 C           5.3231   -0.9468    1.8672 C.2     1  UNL11       0.2187
     27 O           6.4638   -0.8413    1.2967 O.2     1  UNL11      -0.2753
     28 C           5.3434   -1.0849    3.3256 C.3     1  UNL11       0.0358
     29 C           4.2707   -1.8551    4.0240 C.3     1  UNL11      -0.0412
     30 C           4.2296   -0.3822    4.0432 C.3     1  UNL11      -0.0412
     31 C           2.8068   -1.0346    1.6178 C.3     1  UNL11       0.0305
     32 C           2.1401   -2.2902    1.0383 C.3     1  UNL11       0.0308
     33 H          -1.3583   -1.4859   -2.1545 H       1  UNL11       0.0629
     34 H          -3.9909   -0.7127   -1.4267 H       1  UNL11       0.0379
     35 H          -4.1230   -2.2690   -2.3415 H       1  UNL11       0.0379
     36 H          -6.0617   -4.7279    1.4939 H       1  UNL11       0.4829
     37 H          -9.3557   -1.5977    1.1185 H       1  UNL11       0.0627
     38 H          -9.6240    0.5281   -0.1285 H       1  UNL11       0.0618
     39 H          -7.7336    1.3034   -1.5561 H       1  UNL11       0.0618
     40 H          -5.6511   -0.0027   -1.7449 H       1  UNL11       0.0624
     41 H          -3.8121   -3.2518    0.8835 H       1  UNL11       0.0621
     42 H          -1.7461   -4.0885    1.9871 H       1  UNL11       0.0646
     43 H           3.3770   -1.6005   -2.0894 H       1  UNL11       0.0480
     44 H           4.1175   -2.8223   -0.9207 H       1  UNL11       0.0480
     45 H           5.3088   -0.9035   -0.6332 H       1  UNL11       0.0480
     46 H           3.8482    0.1788   -0.7086 H       1  UNL11       0.0480
     47 H           6.3268   -1.0769    3.8203 H       1  UNL11       0.0394
     48 H           3.5153   -2.4098    3.4202 H       1  UNL11       0.0273
     49 H           4.5495   -2.3763    4.9564 H       1  UNL11       0.0273
     50 H           4.5190    0.2228    4.9175 H       1  UNL11       0.0273
     51 H           3.3919    0.0741    3.4626 H       1  UNL11       0.0273
     52 H           2.7515   -1.0583    2.7052 H       1  UNL11       0.0480
     53 H           2.1896   -0.1695    1.2367 H       1  UNL11       0.0480
     54 H           1.1142   -2.3174    1.4301 H       1  UNL11       0.0480
     55 H           2.7324   -3.1394    1.4055 H       1  UNL11       0.0480
@<TRIPOS>BOND
     1     1     2    2
     2     2     3    1
     3     2    22   am
     4     3     4   ar
     5     4     5   ar
     6     4    33    1
     7     5     6    1
     8     5    18   ar
     9     6     7    1
    10     6    34    1
    11     6    35    1
    12     7     8    2
    13     8     9    1
    14     9    10   am
    15     9    36    1
    16    10    11    2
    17    10    12    1
    18    12    13   ar
    19    13    14   ar
    20    13    37    1
    21    14    15   ar
    22    14    38    1
    23    15    16   ar
    24    15    39    1
    25    16    17   ar
    26    16    40    1
    27    17     7    1
    28    17    12   ar
    29    18    19   ar
    30    18    41    1
    31    19    20   ar
    32    19    42    1
    33    20    21    1
    34    20     3   ar
    35    22    23    1
    36    23    24    1
    37    23    43    1
    38    23    44    1
    39    24    25    1
    40    24    45    1
    41    24    46    1
    42    25    26   am
    43    25    31    1
    44    26    27    2
    45    26    28    1
    46    28    29    1
    47    28    47    1
    48    29    30    1
    49    29    48    1
    50    29    49    1
    51    30    28    1
    52    30    50    1
    53    30    51    1
    54    31    32    1
    55    31    52    1
    56    31    53    1
    57    32    22    1
    58    32    54    1
    59    32    55    1
@<TRIPOS>MOLECULE
*****
 55 59 0 0 0
SMALL
GASTEIGER

@<TRIPOS>ATOM
      1 O           1.1774   -1.1763   -1.8192 O.2     1  UNL11      -0.2699
      2 C           1.0344   -2.2581   -1.1629 C.2     1  UNL11       0.2495
      3 C          -0.2898   -2.5068   -0.6383 C.ar    1  UNL11       0.0723
      4 C          -1.4526   -2.0533   -1.2326 C.ar    1  UNL11      -0.0433
      5 C          -2.6998   -2.2999   -0.7200 C.ar    1  UNL11      -0.0405
      6 C          -3.9822   -1.8218   -1.3112 C.3     1  UNL11       0.0211
      7 C          -3.8421   -0.5396   -2.0492 C.2     1  UNL11       0.1192
      8 N          -4.9602    0.0135   -2.6289 N.2     1  UNL11      -0.0073
      9 N          -4.9355    1.1614   -3.2638 N.am    1  UNL11      -0.0356
     10 C          -3.8237    1.8984   -3.4064 C.2     1  UNL11       0.4383
     11 O          -3.7897    2.9939   -4.0090 O.2     1  UNL11      -0.2116
     12 C          -2.6420    1.4032   -2.8451 C.ar    1  UNL11       0.1004
     13 C          -1.4664    2.1038   -2.9657 C.ar    1  UNL11      -0.0441
     14 C          -0.3005    1.6122   -2.4250 C.ar    1  UNL11      -0.0608
     15 C          -0.3533    0.4033   -1.7647 C.ar    1  UNL11      -0.0611
     16 C          -1.5061   -0.3307   -1.6201 C.ar    1  UNL11      -0.0518
     17 C          -2.6779    0.1878   -2.1755 C.ar    1  UNL11       0.0192
     18 C          -2.8265   -3.0465    0.4628 C.ar    1  UNL11      -0.0555
     19 C          -1.6833   -3.5058    1.0677 C.ar    1  UNL11      -0.0254
     20 C          -0.4343   -3.2365    0.5202 C.ar    1  UNL11       0.1355
     21 F           0.6403   -3.7151    1.1625 F       1  UNL11      -0.2047
     22 N           2.1393   -3.0987   -1.0049 N.am    1  UNL11      -0.2945
     23 C           3.4301   -2.7651   -1.5665 C.3     1  UNL11       0.0308
     24 C           4.5679   -2.9067   -0.5803 C.3     1  UNL11       0.0305
     25 N           4.3872   -4.1351    0.1764 N.am    1  UNL11      -0.2983
     26 C           5.4503   -5.0554    0.2405 C.2     1  UNL11       0.2187
     27 O           5.3082   -6.1490    0.8897 O.2     1  UNL11      -0.2753
     28 C           6.7520   -4.8518   -0.4002 C.3     1  UNL11       0.0358
     29 C           7.5542   -6.0234   -0.8646 C.3     1  UNL11      -0.0412
     30 C           7.9291   -5.3441    0.3882 C.3     1  UNL11      -0.0412
     31 C           3.1020   -4.3065    0.8119 C.3     1  UNL11       0.0305
     32 C           2.0079   -4.3353   -0.2647 C.3     1  UNL11       0.0308
     33 H          -1.3583   -1.4859   -2.1545 H       1  UNL11       0.0629
     34 H          -4.4265   -2.5830   -1.9944 H       1  UNL11       0.0379
     35 H          -4.7363   -1.6248   -0.4902 H       1  UNL11       0.0379
     36 H          -5.8057    1.5794   -3.7082 H       1  UNL11       0.4829
     37 H          -1.4983    3.0610   -3.5057 H       1  UNL11       0.0627
     38 H           0.6133    2.1936   -2.5391 H       1  UNL11       0.0618
     39 H           0.5504    0.0099   -1.3392 H       1  UNL11       0.0618
     40 H          -1.5440   -1.2726   -1.1215 H       1  UNL11       0.0624
     41 H          -3.8121   -3.2518    0.8835 H       1  UNL11       0.0621
     42 H          -1.7461   -4.0885    1.9871 H       1  UNL11       0.0646
     43 H           3.4616   -1.7051   -1.9253 H       1  UNL11       0.0480
     44 H           3.6511   -3.4766   -2.4080 H       1  UNL11       0.0480
     45 H           5.4908   -2.9840   -1.1603 H       1  UNL11       0.0480
     46 H           4.5676   -2.0109    0.0691 H       1  UNL11       0.0480
     47 H           6.8967   -3.9181   -0.9651 H       1  UNL11       0.0394
     48 H           7.1091   -7.0444   -0.8143 H       1  UNL11       0.0273
     49 H           8.2009   -5.8742   -1.7467 H       1  UNL11       0.0273
     50 H           8.7823   -4.6519    0.4727 H       1  UNL11       0.0273
     51 H           7.7677   -5.9434    1.3166 H       1  UNL11       0.0273
     52 H           3.0259   -5.1954    1.4364 H       1  UNL11       0.0480
     53 H           2.8757   -3.3955    1.4392 H       1  UNL11       0.0480
     54 H           1.0467   -4.4290    0.2585 H       1  UNL11       0.0480
     55 H           2.2177   -5.2206   -0.8803 H       1  UNL11       0.0480
@<TRIPOS>BOND
     1     1     2    2
     2     2     3    1
     3     2    22   am
     4     3     4   ar
     5     4     5   ar
     6     4    33    1
     7     5     6    1
     8     5    18   ar
     9     6     7    1
    10     6    34    1
    11     6    35    1
    12     7     8    2
    13     8     9    1
    14     9    10   am
    15     9    36    1
    16    10    11    2
    17    10    12    1
    18    12    13   ar
    19    13    14   ar
    20    13    37    1
    21    14    15   ar
    22    14    38    1
    23    15    16   ar
    24    15    39    1
    25    16    17   ar
    26    16    40    1
    27    17     7    1
    28    17    12   ar
    29    18    19   ar
    30    18    41    1
    31    19    20   ar
    32    19    42    1
    33    20    21    1
    34    20     3   ar
    35    22    23    1
    36    23    24    1
    37    23    43    1
    38    23    44    1
    39    24    25    1
    40    24    45    1
    41    24    46    1
    42    25    26   am
    43    25    31    1
    44    26    27    2
    45    26    28    1
    46    28    29    1
    47    28    47    1
    48    29    30    1
    49    29    48    1
    50    29    49    1
    51    30    28    1
    52    30    50    1
    53    30    51    1
    54    31    32    1
    55    31    52    1
    56    31    53    1
    57    32    22    1
    58    32    54    1
    59    32    55    1
@<TRIPOS>MOLECULE
*****
 55 59 0 0 0
SMALL
GASTEIGER

@<TRIPOS>ATOM
      1 O           1.0869   -1.5770   -2.2376 O.2     1  UNL11      -0.2699
      2 C           1.0344   -2.2581   -1.1629 C.2     1  UNL11       0.2495
      3 C          -0.2898   -2.5068   -0.6383 C.ar    1  UNL11       0.0723
      4 C          -1.4526   -2.0533   -1.2326 C.ar    1  UNL11      -0.0433
      5 C          -2.6998   -2.2999   -0.7200 C.ar    1  UNL11      -0.0405
      6 C          -3.9822   -1.8218   -1.3112 C.3     1  UNL11       0.0211
      7 C          -4.2161   -2.3318   -2.6873 C.2     1  UNL11       0.1192
      8 N          -5.3360   -3.0937   -2.9269 N.2     1  UNL11      -0.0073
      9 N          -5.6412   -3.5505   -4.1184 N.am    1  UNL11      -0.0356
     10 C          -4.8936   -3.3186   -5.2078 C.2     1  UNL11       0.4383
     11 O          -5.1760   -3.7487   -6.3479 O.2     1  UNL11      -0.2116
     12 C          -3.7351   -2.5513   -5.0470 C.ar    1  UNL11       0.1004
     13 C          -2.9196   -2.2872   -6.1207 C.ar    1  UNL11      -0.0441
     14 C          -1.7731   -1.5432   -5.9620 C.ar    1  UNL11      -0.0608
     15 C          -1.4745   -1.0768   -4.6997 C.ar    1  UNL11      -0.0611
     16 C          -2.2607   -1.3164   -3.5983 C.ar    1  UNL11      -0.0518
     17 C          -3.4203   -2.0726   -3.7826 C.ar    1  UNL11       0.0192
     18 C          -2.8265   -3.0465    0.4628 C.ar    1  UNL11      -0.0555
     19 C          -1.6833   -3.5058    1.0677 C.ar    1  UNL11      -0.0254
     20 C          -0.4343   -3.2365    0.5202 C.ar    1  UNL11       0.1355
     21 F           0.6403   -3.7151    1.1625 F       1  UNL11      -0.2047
     22 N           2.2292   -2.7005   -0.5892 N.am    1  UNL11      -0.2945
     23 C           3.5120   -2.4009   -1.1871 C.3     1  UNL11       0.0308
     24 C           4.5214   -1.8581   -0.2005 C.3     1  UNL11       0.0305
     25 N           4.4424   -2.6300    1.0292 N.am    1  UNL11      -0.2983
     26 C           5.6210   -3.1921    1.5546 C.2     1  UNL11       0.2187
     27 O           5.5721   -3.8865    2.6286 O.2     1  UNL11      -0.2753
     28 C           6.9453   -3.0390    0.9470 C.3     1  UNL11       0.0358
     29 C           7.2809   -1.8058    0.1736 C.3     1  UNL11      -0.0412
     30 C           6.9580   -3.0467   -0.5527 C.3     1  UNL11      -0.0412
     31 C           3.1298   -2.7540    1.6180 C.3     1  UNL11       0.0305
     32 C           2.2018   -3.4770    0.6316 C.3     1  UNL11       0.0308
     33 H          -1.3583   -1.4859   -2.1545 H       1  UNL11       0.0629
     34 H          -4.8544   -2.0966   -0.6729 H       1  UNL11       0.0379
     35 H          -3.9705   -0.6932   -1.3980 H       1  UNL11       0.0379
     36 H          -6.5092   -4.1385   -4.2922 H       1  UNL11       0.4829
     37 H          -3.2197   -2.6912   -7.0983 H       1  UNL11       0.0627
     38 H          -1.1498   -1.3528   -6.8346 H       1  UNL11       0.0618
     39 H          -0.5822   -0.4955   -4.5640 H       1  UNL11       0.0618
     40 H          -2.0222   -0.9675   -2.6193 H       1  UNL11       0.0624
     41 H          -3.8121   -3.2518    0.8835 H       1  UNL11       0.0621
     42 H          -1.7461   -4.0885    1.9871 H       1  UNL11       0.0646
     43 H           3.4206   -1.6288   -1.9928 H       1  UNL11       0.0480
     44 H           3.9496   -3.3521   -1.5956 H       1  UNL11       0.0480
     45 H           5.5117   -1.9989   -0.6405 H       1  UNL11       0.0480
     46 H           4.2953   -0.7872   -0.0380 H       1  UNL11       0.0480
     47 H           7.7910   -3.5361    1.4467 H       1  UNL11       0.0394
     48 H           6.5541   -0.9607    0.1509 H       1  UNL11       0.0273
     49 H           8.3336   -1.4735    0.1859 H       1  UNL11       0.0273
     50 H           7.7172   -3.6871   -1.0299 H       1  UNL11       0.0273
     51 H           5.9958   -3.0252   -1.1191 H       1  UNL11       0.0273
     52 H           3.1162   -3.2674    2.5784 H       1  UNL11       0.0480
     53 H           2.6830   -1.7250    1.7445 H       1  UNL11       0.0480
     54 H           1.2085   -3.5184    1.0986 H       1  UNL11       0.0480
     55 H           2.6270   -4.4817    0.5031 H       1  UNL11       0.0480
@<TRIPOS>BOND
     1     1     2    2
     2     2     3    1
     3     2    22   am
     4     3     4   ar
     5     4     5   ar
     6     4    33    1
     7     5     6    1
     8     5    18   ar
     9     6     7    1
    10     6    34    1
    11     6    35    1
    12     7     8    2
    13     8     9    1
    14     9    10   am
    15     9    36    1
    16    10    11    2
    17    10    12    1
    18    12    13   ar
    19    13    14   ar
    20    13    37    1
    21    14    15   ar
    22    14    38    1
    23    15    16   ar
    24    15    39    1
    25    16    17   ar
    26    16    40    1
    27    17     7    1
    28    17    12   ar
    29    18    19   ar
    30    18    41    1
    31    19    20   ar
    32    19    42    1
    33    20    21    1
    34    20     3   ar
    35    22    23    1
    36    23    24    1
    37    23    43    1
    38    23    44    1
    39    24    25    1
    40    24    45    1
    41    24    46    1
    42    25    26   am
    43    25    31    1
    44    26    27    2
    45    26    28    1
    46    28    29    1
    47    28    47    1
    48    29    30    1
    49    29    48    1
    50    29    49    1
    51    30    28    1
    52    30    50    1
    53    30    51    1
    54    31    32    1
    55    31    52    1
    56    31    53    1
    57    32    22    1
    58    32    54    1
    59    32    55    1
@<TRIPOS>MOLECULE
*****
 55 59 0 0 0
SMALL
GASTEIGER

@<TRIPOS>ATOM
      1 O           1.9048   -3.1557   -0.9214 O.2     1  UNL11      -0.2699
      2 C           1.0344   -2.2581   -1.1629 C.2     1  UNL11       0.2495
      3 C          -0.2898   -2.5068   -0.6383 C.ar    1  UNL11       0.0723
      4 C          -1.4526   -2.0533   -1.2326 C.ar    1  UNL11      -0.0433
      5 C          -2.6998   -2.2999   -0.7200 C.ar    1  UNL11      -0.0405
      6 C          -3.9822   -1.8218   -1.3112 C.3     1  UNL11       0.0211
      7 C          -4.5695   -2.7802   -2.2833 C.2     1  UNL11       0.1192
      8 N          -4.7638   -2.3676   -3.5811 N.2     1  UNL11      -0.0073
      9 N          -5.2385   -3.1596   -4.5132 N.am    1  UNL11      -0.0356
     10 C          -5.5771   -4.4381   -4.2888 C.2     1  UNL11       0.4383
     11 O          -6.0297   -5.2013   -5.1704 O.2     1  UNL11      -0.2116
     12 C          -5.4101   -4.9342   -2.9916 C.ar    1  UNL11       0.1004
     13 C          -5.7488   -6.2316   -2.6929 C.ar    1  UNL11      -0.0441
     14 C          -5.5970   -6.7177   -1.4146 C.ar    1  UNL11      -0.0608
     15 C          -5.0980   -5.8647   -0.4535 C.ar    1  UNL11      -0.0611
     16 C          -4.7463   -4.5607   -0.7074 C.ar    1  UNL11      -0.0518
     17 C          -4.9074   -4.0888   -2.0121 C.ar    1  UNL11       0.0192
     18 C          -2.8265   -3.0465    0.4628 C.ar    1  UNL11      -0.0555
     19 C          -1.6833   -3.5058    1.0677 C.ar    1  UNL11      -0.0254
     20 C          -0.4343   -3.2365    0.5202 C.ar    1  UNL11       0.1355
     21 F           0.6403   -3.7151    1.1625 F       1  UNL11      -0.2047
     22 N           1.4166   -1.1322   -1.8968 N.am    1  UNL11      -0.2945
     23 C           0.4817   -0.0683   -2.1919 C.3     1  UNL11       0.0308
     24 C           1.0240    1.3093   -1.8834 C.3     1  UNL11       0.0305
     25 N           2.4013    1.3886   -2.3424 N.am    1  UNL11      -0.2983
     26 C           2.7747    2.4495   -3.1886 C.2     1  UNL11       0.2187
     27 O           3.9785    2.5310   -3.6153 O.2     1  UNL11      -0.2753
     28 C           1.8612    3.5045   -3.6345 C.3     1  UNL11       0.0358
     29 C           0.7255    3.9346   -2.7645 C.3     1  UNL11      -0.0412
     30 C           0.4590    3.0510   -3.9134 C.3     1  UNL11      -0.0412
     31 C           3.2868    0.3470   -1.8775 C.3     1  UNL11       0.0305
     32 C           2.7751   -1.0103   -2.3803 C.3     1  UNL11       0.0308
     33 H          -1.3583   -1.4859   -2.1545 H       1  UNL11       0.0629
     34 H          -4.7389   -1.6008   -0.5224 H       1  UNL11       0.0379
     35 H          -3.8079   -0.8640   -1.8888 H       1  UNL11       0.0379
     36 H          -5.3847   -2.8302   -5.5130 H       1  UNL11       0.4829
     37 H          -6.1411   -6.8554   -3.5091 H       1  UNL11       0.0627
     38 H          -5.8753   -7.7511   -1.2129 H       1  UNL11       0.0618
     39 H          -4.9757   -6.2330    0.5474 H       1  UNL11       0.0618
     40 H          -4.3736   -3.8969    0.0392 H       1  UNL11       0.0624
     41 H          -3.8121   -3.2518    0.8835 H       1  UNL11       0.0621
     42 H          -1.7461   -4.0885    1.9871 H       1  UNL11       0.0646
     43 H          -0.4604   -0.1708   -1.5956 H       1  UNL11       0.0480
     44 H           0.2586   -0.0806   -3.2934 H       1  UNL11       0.0480
     45 H           0.4238    2.0270   -2.4480 H       1  UNL11       0.0480
     46 H           0.9360    1.4723   -0.7925 H       1  UNL11       0.0480
     47 H           2.2692    4.2759   -4.3057 H       1  UNL11       0.0394
     48 H           0.6411    3.5209   -1.7326 H       1  UNL11       0.0273
     49 H           0.4048    4.9884   -2.8379 H       1  UNL11       0.0273
     50 H           0.0132    3.4004   -4.8586 H       1  UNL11       0.0273
     51 H           0.1449    2.0129   -3.6474 H       1  UNL11       0.0273
     52 H           4.3270    0.4789   -2.1715 H       1  UNL11       0.0480
     53 H           3.2272    0.2869   -0.7517 H       1  UNL11       0.0480
     54 H           3.4508   -1.7764   -1.9766 H       1  UNL11       0.0480
     55 H           2.8310   -0.9632   -3.4763 H       1  UNL11       0.0480
@<TRIPOS>BOND
     1     1     2    2
     2     2     3    1
     3     2    22   am
     4     3     4   ar
     5     4     5   ar
     6     4    33    1
     7     5     6    1
     8     5    18   ar
     9     6     7    1
    10     6    34    1
    11     6    35    1
    12     7     8    2
    13     8     9    1
    14     9    10   am
    15     9    36    1
    16    10    11    2
    17    10    12    1
    18    12    13   ar
    19    13    14   ar
    20    13    37    1
    21    14    15   ar
    22    14    38    1
    23    15    16   ar
    24    15    39    1
    25    16    17   ar
    26    16    40    1
    27    17     7    1
    28    17    12   ar
    29    18    19   ar
    30    18    41    1
    31    19    20   ar
    32    19    42    1
    33    20    21    1
    34    20     3   ar
    35    22    23    1
    36    23    24    1
    37    23    43    1
    38    23    44    1
    39    24    25    1
    40    24    45    1
    41    24    46    1
    42    25    26   am
    43    25    31    1
    44    26    27    2
    45    26    28    1
    46    28    29    1
    47    28    47    1
    48    29    30    1
    49    29    48    1
    50    29    49    1
    51    30    28    1
    52    30    50    1
    53    30    51    1
    54    31    32    1
    55    31    52    1
    56    31    53    1
    57    32    22    1
    58    32    54    1
    59    32    55    1
@<TRIPOS>MOLECULE
*****
 55 59 0 0 0
SMALL
GASTEIGER

@<TRIPOS>ATOM
      1 O           1.9677   -2.1802   -0.3001 O.2     1  UNL11      -0.2699
      2 C           1.0344   -2.2581   -1.1629 C.2     1  UNL11       0.2495
      3 C          -0.2898   -2.5068   -0.6383 C.ar    1  UNL11       0.0723
      4 C          -1.4526   -2.0533   -1.2326 C.ar    1  UNL11      -0.0433
      5 C          -2.6998   -2.2999   -0.7200 C.ar    1  UNL11      -0.0405
      6 C          -3.9822   -1.8218   -1.3112 C.3     1  UNL11       0.0211
      7 C          -3.7917   -1.0244   -2.5507 C.2     1  UNL11       0.1192
      8 N          -4.2424    0.2750   -2.5749 N.2     1  UNL11      -0.0073
      9 N          -4.0801    1.0625   -3.6117 N.am    1  UNL11      -0.0356
     10 C          -3.4632    0.6760   -4.7385 C.2     1  UNL11       0.4383
     11 O          -3.3027    1.4190   -5.7318 O.2     1  UNL11      -0.2116
     12 C          -2.9763   -0.6341   -4.7936 C.ar    1  UNL11       0.1004
     13 C          -2.3450   -1.0959   -5.9231 C.ar    1  UNL11      -0.0441
     14 C          -1.8765   -2.3882   -5.9838 C.ar    1  UNL11      -0.0608
     15 C          -2.0614   -3.1955   -4.8818 C.ar    1  UNL11      -0.0611
     16 C          -2.6865   -2.7758   -3.7321 C.ar    1  UNL11      -0.0518
     17 C          -3.1529   -1.4600   -3.6919 C.ar    1  UNL11       0.0192
     18 C          -2.8265   -3.0465    0.4628 C.ar    1  UNL11      -0.0555
     19 C          -1.6833   -3.5058    1.0677 C.ar    1  UNL11      -0.0254
     20 C          -0.4343   -3.2365    0.5202 C.ar    1  UNL11       0.1355
     21 F           0.6403   -3.7151    1.1625 F       1  UNL11      -0.2047
     22 N           1.3541   -2.1013   -2.5140 N.am    1  UNL11      -0.2945
     23 C           2.7127   -1.8559   -2.9465 C.3     1  UNL11       0.0308
     24 C           3.1527   -2.7545   -4.0804 C.3     1  UNL11       0.0305
     25 N           2.0750   -2.8518   -5.0517 N.am    1  UNL11      -0.2983
     26 C           2.3520   -2.5721   -6.4031 C.2     1  UNL11       0.2187
     27 O           3.5365   -2.2394   -6.7552 O.2     1  UNL11      -0.2753
     28 C           1.3555   -2.6343   -7.4752 C.3     1  UNL11       0.0358
     29 C          -0.0801   -2.3380   -7.1872 C.3     1  UNL11      -0.0412
     30 C           0.3500   -3.7391   -7.3411 C.3     1  UNL11      -0.0412
     31 C           0.7842   -3.2371   -4.5318 C.3     1  UNL11       0.0305
     32 C           0.3151   -2.1840   -3.5179 C.3     1  UNL11       0.0308
     33 H          -1.3583   -1.4859   -2.1545 H       1  UNL11       0.0629
     34 H          -4.6721   -2.6697   -1.5318 H       1  UNL11       0.0379
     35 H          -4.5122   -1.1371   -0.5820 H       1  UNL11       0.0379
     36 H          -4.4326    2.0650   -3.6196 H       1  UNL11       0.4829
     37 H          -2.2325   -0.3968   -6.7643 H       1  UNL11       0.0627
     38 H          -1.3808   -2.7212   -6.8946 H       1  UNL11       0.0618
     39 H          -1.7003   -4.2058   -4.9180 H       1  UNL11       0.0618
     40 H          -2.8420   -3.4046   -2.8851 H       1  UNL11       0.0624
     41 H          -3.8121   -3.2518    0.8835 H       1  UNL11       0.0621
     42 H          -1.7461   -4.0885    1.9871 H       1  UNL11       0.0646
     43 H           3.4455   -2.0231   -2.1168 H       1  UNL11       0.0480
     44 H           2.7826   -0.8027   -3.3327 H       1  UNL11       0.0480
     45 H           4.0125   -2.2769   -4.5565 H       1  UNL11       0.0480
     46 H           3.4186   -3.7386   -3.6501 H       1  UNL11       0.0480
     47 H           1.6967   -2.4038   -8.4962 H       1  UNL11       0.0394
     48 H          -0.3691   -1.9686   -6.1757 H       1  UNL11       0.0273
     49 H          -0.6754   -1.8880   -8.0007 H       1  UNL11       0.0273
     50 H           0.1602   -4.3373   -8.2468 H       1  UNL11       0.0273
     51 H           0.3128   -4.3495   -6.4067 H       1  UNL11       0.0273
     52 H           0.0189   -3.3799   -5.2933 H       1  UNL11       0.0480
     53 H           0.8949   -4.1908   -3.9378 H       1  UNL11       0.0480
     54 H          -0.6481   -2.5304   -3.1195 H       1  UNL11       0.0480
     55 H           0.2019   -1.2512   -4.0868 H       1  UNL11       0.0480
@<TRIPOS>BOND
     1     1     2    2
     2     2     3    1
     3     2    22   am
     4     3     4   ar
     5     4     5   ar
     6     4    33    1
     7     5     6    1
     8     5    18   ar
     9     6     7    1
    10     6    34    1
    11     6    35    1
    12     7     8    2
    13     8     9    1
    14     9    10   am
    15     9    36    1
    16    10    11    2
    17    10    12    1
    18    12    13   ar
    19    13    14   ar
    20    13    37    1
    21    14    15   ar
    22    14    38    1
    23    15    16   ar
    24    15    39    1
    25    16    17   ar
    26    16    40    1
    27    17     7    1
    28    17    12   ar
    29    18    19   ar
    30    18    41    1
    31    19    20   ar
    32    19    42    1
    33    20    21    1
    34    20     3   ar
    35    22    23    1
    36    23    24    1
    37    23    43    1
    38    23    44    1
    39    24    25    1
    40    24    45    1
    41    24    46    1
    42    25    26   am
    43    25    31    1
    44    26    27    2
    45    26    28    1
    46    28    29    1
    47    28    47    1
    48    29    30    1
    49    29    48    1
    50    29    49    1
    51    30    28    1
    52    30    50    1
    53    30    51    1
    54    31    32    1
    55    31    52    1
    56    31    53    1
    57    32    22    1
    58    32    54    1
    59    32    55    1
@<TRIPOS>MOLECULE
*****
 55 59 0 0 0
SMALL
GASTEIGER

@<TRIPOS>ATOM
      1 O           1.9048   -3.1557   -0.9214 O.2     1  UNL11      -0.2699
      2 C           1.0344   -2.2581   -1.1629 C.2     1  UNL11       0.2495
      3 C          -0.2898   -2.5068   -0.6383 C.ar    1  UNL11       0.0723
      4 C          -1.4526   -2.0533   -1.2326 C.ar    1  UNL11      -0.0433
      5 C          -2.6998   -2.2999   -0.7200 C.ar    1  UNL11      -0.0405
      6 C          -3.9822   -1.8218   -1.3112 C.3     1  UNL11       0.0211
      7 C          -4.4070   -0.4968   -0.7893 C.2     1  UNL11       0.1192
      8 N          -4.6203   -0.3578    0.5625 N.2     1  UNL11      -0.0073
      9 N          -4.9573    0.7844    1.1132 N.am    1  UNL11      -0.0356
     10 C          -5.1247    1.9165    0.4135 C.2     1  UNL11       0.4383
     11 O          -5.4450    3.0102    0.9289 O.2     1  UNL11      -0.2116
     12 C          -4.9270    1.8580   -0.9701 C.ar    1  UNL11       0.1004
     13 C          -5.0938    2.9795   -1.7458 C.ar    1  UNL11      -0.0441
     14 C          -4.9120    2.9209   -3.1085 C.ar    1  UNL11      -0.0608
     15 C          -4.5600    1.7087   -3.6623 C.ar    1  UNL11      -0.0611
     16 C          -4.3824    0.5625   -2.9252 C.ar    1  UNL11      -0.0518
     17 C          -4.5708    0.6452   -1.5438 C.ar    1  UNL11       0.0192
     18 C          -2.8265   -3.0465    0.4628 C.ar    1  UNL11      -0.0555
     19 C          -1.6833   -3.5058    1.0677 C.ar    1  UNL11      -0.0254
     20 C          -0.4343   -3.2365    0.5202 C.ar    1  UNL11       0.1355
     21 F           0.6403   -3.7151    1.1625 F       1  UNL11      -0.2047
     22 N           1.4166   -1.1322   -1.8968 N.am    1  UNL11      -0.2945
     23 C           2.7692   -0.9698   -2.3836 C.3     1  UNL11       0.0308
     24 C           2.8387   -0.5850   -3.8445 C.3     1  UNL11       0.0305
     25 N           1.8303    0.4269   -4.1151 N.am    1  UNL11      -0.2983
     26 C           2.2221    1.6251   -4.7412 C.2     1  UNL11       0.2187
     27 O           3.4480    1.8059   -5.0608 O.2     1  UNL11      -0.2753
     28 C           1.3040    2.7194   -5.0670 C.3     1  UNL11       0.0358
     29 C           0.0986    2.9683   -4.2205 C.3     1  UNL11      -0.0412
     30 C          -0.0597    2.2880   -5.5181 C.3     1  UNL11      -0.0412
     31 C           0.4826    0.1054   -3.7085 C.3     1  UNL11       0.0305
     32 C           0.4501   -0.0949   -2.1868 C.3     1  UNL11       0.0308
     33 H          -1.3583   -1.4859   -2.1545 H       1  UNL11       0.0629
     34 H          -3.9249   -1.7684   -2.4236 H       1  UNL11       0.0379
     35 H          -4.8186   -2.5388   -1.0508 H       1  UNL11       0.0379
     36 H          -5.1198    0.8804    2.1591 H       1  UNL11       0.4829
     37 H          -5.3752    3.9125   -1.2366 H       1  UNL11       0.0627
     38 H          -5.0524    3.8290   -3.6931 H       1  UNL11       0.0618
     39 H          -4.4159    1.6510   -4.7246 H       1  UNL11       0.0618
     40 H          -4.1240   -0.3784   -3.3555 H       1  UNL11       0.0624
     41 H          -3.8121   -3.2518    0.8835 H       1  UNL11       0.0621
     42 H          -1.7461   -4.0885    1.9871 H       1  UNL11       0.0646
     43 H           3.3591   -1.9162   -2.2844 H       1  UNL11       0.0480
     44 H           3.2590   -0.1343   -1.8133 H       1  UNL11       0.0480
     45 H           3.8266   -0.1516   -4.0181 H       1  UNL11       0.0480
     46 H           2.6837   -1.5016   -4.4447 H       1  UNL11       0.0480
     47 H           1.7287    3.6032   -5.5675 H       1  UNL11       0.0394
     48 H          -0.0400    2.3827   -3.2819 H       1  UNL11       0.0273
     49 H          -0.2531    4.0115   -4.1378 H       1  UNL11       0.0273
     50 H          -0.4535    2.7833   -6.4202 H       1  UNL11       0.0273
     51 H          -0.3545    1.2128   -5.4543 H       1  UNL11       0.0273
     52 H          -0.2614    0.8464   -3.9972 H       1  UNL11       0.0480
     53 H           0.1940   -0.8952   -4.1447 H       1  UNL11       0.0480
     54 H          -0.5791   -0.3733   -1.9227 H       1  UNL11       0.0480
     55 H           0.7276    0.8749   -1.7518 H       1  UNL11       0.0480
@<TRIPOS>BOND
     1     1     2    2
     2     2     3    1
     3     2    22   am
     4     3     4   ar
     5     4     5   ar
     6     4    33    1
     7     5     6    1
     8     5    18   ar
     9     6     7    1
    10     6    34    1
    11     6    35    1
    12     7     8    2
    13     8     9    1
    14     9    10   am
    15     9    36    1
    16    10    11    2
    17    10    12    1
    18    12    13   ar
    19    13    14   ar
    20    13    37    1
    21    14    15   ar
    22    14    38    1
    23    15    16   ar
    24    15    39    1
    25    16    17   ar
    26    16    40    1
    27    17     7    1
    28    17    12   ar
    29    18    19   ar
    30    18    41    1
    31    19    20   ar
    32    19    42    1
    33    20    21    1
    34    20     3   ar
    35    22    23    1
    36    23    24    1
    37    23    43    1
    38    23    44    1
    39    24    25    1
    40    24    45    1
    41    24    46    1
    42    25    26   am
    43    25    31    1
    44    26    27    2
    45    26    28    1
    46    28    29    1
    47    28    47    1
    48    29    30    1
    49    29    48    1
    50    29    49    1
    51    30    28    1
    52    30    50    1
    53    30    51    1
    54    31    32    1
    55    31    52    1
    56    31    53    1
    57    32    22    1
    58    32    54    1
    59    32    55    1
@<TRIPOS>MOLECULE
*****
 55 59 0 0 0
SMALL
GASTEIGER

@<TRIPOS>ATOM
      1 O           1.1158   -2.1311   -2.4273 O.2     1  UNL11      -0.2699
      2 C           1.0344   -2.2581   -1.1629 C.2     1  UNL11       0.2495
      3 C          -0.2898   -2.5068   -0.6383 C.ar    1  UNL11       0.0723
      4 C          -1.4526   -2.0533   -1.2326 C.ar    1  UNL11      -0.0433
      5 C          -2.6998   -2.2999   -0.7200 C.ar    1  UNL11      -0.0405
      6 C          -3.9822   -1.8218   -1.3112 C.3     1  UNL11       0.0211
      7 C          -4.5695   -2.7802   -2.2833 C.2     1  UNL11       0.1192
      8 N          -4.3282   -4.1237   -2.1129 N.2     1  UNL11      -0.0073
      9 N          -4.8396   -5.0411   -2.8992 N.am    1  UNL11      -0.0356
     10 C          -5.6407   -4.7561   -3.9368 C.2     1  UNL11       0.4383
     11 O          -6.1338   -5.6230   -4.6917 O.2     1  UNL11      -0.2116
     12 C          -5.9337   -3.4098   -4.1781 C.ar    1  UNL11       0.1004
     13 C          -6.7384   -3.0499   -5.2319 C.ar    1  UNL11      -0.0441
     14 C          -7.0177   -1.7253   -5.4783 C.ar    1  UNL11      -0.0608
     15 C          -6.4665   -0.7812   -4.6386 C.ar    1  UNL11      -0.0611
     16 C          -5.6570   -1.0956   -3.5735 C.ar    1  UNL11      -0.0518
     17 C          -5.3879   -2.4463   -3.3411 C.ar    1  UNL11       0.0192
     18 C          -2.8265   -3.0465    0.4628 C.ar    1  UNL11      -0.0555
     19 C          -1.6833   -3.5058    1.0677 C.ar    1  UNL11      -0.0254
     20 C          -0.4343   -3.2365    0.5202 C.ar    1  UNL11       0.1355
     21 F           0.6403   -3.7151    1.1625 F       1  UNL11      -0.2047
     22 N           2.2005   -2.1501   -0.4007 N.am    1  UNL11      -0.2945
     23 C           2.1805   -2.3003    1.0381 C.3     1  UNL11       0.0308
     24 C           3.2422   -3.2437    1.5574 C.3     1  UNL11       0.0305
     25 N           4.4905   -2.9802    0.8600 N.am    1  UNL11      -0.2983
     26 C           5.6534   -2.7423    1.6164 C.2     1  UNL11       0.2187
     27 O           6.7601   -2.4948    1.0232 O.2     1  UNL11      -0.2753
     28 C           5.6974   -2.7563    3.0807 C.3     1  UNL11       0.0358
     29 C           4.7691   -3.6353    3.8536 C.3     1  UNL11      -0.0412
     30 C           4.4822   -2.1932    3.7556 C.3     1  UNL11      -0.0412
     31 C           4.4259   -2.9869   -0.5825 C.3     1  UNL11       0.0305
     32 C           3.4665   -1.8828   -1.0486 C.3     1  UNL11       0.0308
     33 H          -1.3583   -1.4859   -2.1545 H       1  UNL11       0.0629
     34 H          -4.7389   -1.6008   -0.5224 H       1  UNL11       0.0379
     35 H          -3.8079   -0.8640   -1.8888 H       1  UNL11       0.0379
     36 H          -4.6464   -6.0766   -2.7584 H       1  UNL11       0.4829
     37 H          -7.1435   -3.8560   -5.8605 H       1  UNL11       0.0627
     38 H          -7.6593   -1.4755   -6.3221 H       1  UNL11       0.0618
     39 H          -6.6772    0.2554   -4.8215 H       1  UNL11       0.0618
     40 H          -5.2192   -0.3645   -2.9325 H       1  UNL11       0.0624
     41 H          -3.8121   -3.2518    0.8835 H       1  UNL11       0.0621
     42 H          -1.7461   -4.0885    1.9871 H       1  UNL11       0.0646
     43 H           1.2014   -2.7089    1.3959 H       1  UNL11       0.0480
     44 H           2.3895   -1.3006    1.5072 H       1  UNL11       0.0480
     45 H           3.3795   -3.0233    2.6188 H       1  UNL11       0.0480
     46 H           2.8840   -4.2785    1.3982 H       1  UNL11       0.0480
     47 H           6.6659   -2.5444    3.5592 H       1  UNL11       0.0394
     48 H           4.1167   -4.3553    3.3067 H       1  UNL11       0.0273
     49 H           5.1317   -4.0254    4.8206 H       1  UNL11       0.0273
     50 H           4.6668   -1.4795    4.5746 H       1  UNL11       0.0273
     51 H           3.5796   -1.9316    3.1523 H       1  UNL11       0.0273
     52 H           5.3900   -2.8674   -1.0748 H       1  UNL11       0.0480
     53 H           3.9543   -3.9532   -0.9266 H       1  UNL11       0.0480
     54 H           3.4160   -1.9444   -2.1442 H       1  UNL11       0.0480
     55 H           3.9178   -0.9366   -0.7203 H       1  UNL11       0.0480
@<TRIPOS>BOND
     1     1     2    2
     2     2     3    1
     3     2    22   am
     4     3     4   ar
     5     4     5   ar
     6     4    33    1
     7     5     6    1
     8     5    18   ar
     9     6     7    1
    10     6    34    1
    11     6    35    1
    12     7     8    2
    13     8     9    1
    14     9    10   am
    15     9    36    1
    16    10    11    2
    17    10    12    1
    18    12    13   ar
    19    13    14   ar
    20    13    37    1
    21    14    15   ar
    22    14    38    1
    23    15    16   ar
    24    15    39    1
    25    16    17   ar
    26    16    40    1
    27    17     7    1
    28    17    12   ar
    29    18    19   ar
    30    18    41    1
    31    19    20   ar
    32    19    42    1
    33    20    21    1
    34    20     3   ar
    35    22    23    1
    36    23    24    1
    37    23    43    1
    38    23    44    1
    39    24    25    1
    40    24    45    1
    41    24    46    1
    42    25    26   am
    43    25    31    1
    44    26    27    2
    45    26    28    1
    46    28    29    1
    47    28    47    1
    48    29    30    1
    49    29    48    1
    50    29    49    1
    51    30    28    1
    52    30    50    1
    53    30    51    1
    54    31    32    1
    55    31    52    1
    56    31    53    1
    57    32    22    1
    58    32    54    1
    59    32    55    1
@<TRIPOS>MOLECULE
*****
 55 59 0 0 0
SMALL
GASTEIGER

@<TRIPOS>ATOM
      1 O           1.1158   -2.1311   -2.4273 O.2     1  UNL11      -0.2699
      2 C           1.0344   -2.2581   -1.1629 C.2     1  UNL11       0.2495
      3 C          -0.2898   -2.5068   -0.6383 C.ar    1  UNL11       0.0723
      4 C          -1.4526   -2.0533   -1.2326 C.ar    1  UNL11      -0.0433
      5 C          -2.6998   -2.2999   -0.7200 C.ar    1  UNL11      -0.0405
      6 C          -3.9822   -1.8218   -1.3112 C.3     1  UNL11       0.0211
      7 C          -4.9005   -2.9286   -1.6854 C.2     1  UNL11       0.1192
      8 N          -4.4698   -3.8629   -2.5985 N.2     1  UNL11      -0.0073
      9 N          -5.1986   -4.8939   -2.9554 N.am    1  UNL11      -0.0356
     10 C          -6.4248   -5.1316   -2.4661 C.2     1  UNL11       0.4383
     11 O          -7.1272   -6.1116   -2.7990 O.2     1  UNL11      -0.2116
     12 C          -6.9361   -4.2251   -1.5314 C.ar    1  UNL11       0.1004
     13 C          -8.1904   -4.4047   -1.0005 C.ar    1  UNL11      -0.0441
     14 C          -8.6999   -3.5073   -0.0904 C.ar    1  UNL11      -0.0608
     15 C          -7.9148   -2.4318    0.2663 C.ar    1  UNL11      -0.0611
     16 C          -6.6556   -2.2130   -0.2389 C.ar    1  UNL11      -0.0518
     17 C          -6.1578   -3.1372   -1.1602 C.ar    1  UNL11       0.0192
     18 C          -2.8265   -3.0465    0.4628 C.ar    1  UNL11      -0.0555
     19 C          -1.6833   -3.5058    1.0677 C.ar    1  UNL11      -0.0254
     20 C          -0.4343   -3.2365    0.5202 C.ar    1  UNL11       0.1355
     21 F           0.6403   -3.7151    1.1625 F       1  UNL11      -0.2047
     22 N           2.2005   -2.1501   -0.4007 N.am    1  UNL11      -0.2945
     23 C           2.1805   -2.3003    1.0381 C.3     1  UNL11       0.0308
     24 C           3.2422   -3.2437    1.5574 C.3     1  UNL11       0.0305
     25 N           4.4905   -2.9802    0.8600 N.am    1  UNL11      -0.2983
     26 C           5.6534   -2.7423    1.6164 C.2     1  UNL11       0.2187
     27 O           6.7601   -2.4948    1.0232 O.2     1  UNL11      -0.2753
     28 C           5.6974   -2.7563    3.0807 C.3     1  UNL11       0.0358
     29 C           4.7691   -3.6353    3.8536 C.3     1  UNL11      -0.0412
     30 C           4.4822   -2.1932    3.7556 C.3     1  UNL11      -0.0412
     31 C           4.4259   -2.9869   -0.5825 C.3     1  UNL11       0.0305
     32 C           3.4665   -1.8828   -1.0486 C.3     1  UNL11       0.0308
     33 H          -1.3583   -1.4859   -2.1545 H       1  UNL11       0.0629
     34 H          -4.5174   -1.1285   -0.6209 H       1  UNL11       0.0379
     35 H          -3.7779   -1.2531   -2.2684 H       1  UNL11       0.0379
     36 H          -4.8558   -5.6098   -3.6621 H       1  UNL11       0.4829
     37 H          -8.7608   -5.2849   -1.3306 H       1  UNL11       0.0627
     38 H          -9.6977   -3.6803    0.3105 H       1  UNL11       0.0618
     39 H          -8.3022   -1.7250    0.9753 H       1  UNL11       0.0618
     40 H          -6.0540   -1.3735    0.0264 H       1  UNL11       0.0624
     41 H          -3.8121   -3.2518    0.8835 H       1  UNL11       0.0621
     42 H          -1.7461   -4.0885    1.9871 H       1  UNL11       0.0646
     43 H           1.2014   -2.7089    1.3959 H       1  UNL11       0.0480
     44 H           2.3895   -1.3006    1.5072 H       1  UNL11       0.0480
     45 H           3.3795   -3.0233    2.6188 H       1  UNL11       0.0480
     46 H           2.8840   -4.2785    1.3982 H       1  UNL11       0.0480
     47 H           6.6659   -2.5444    3.5592 H       1  UNL11       0.0394
     48 H           4.1167   -4.3553    3.3067 H       1  UNL11       0.0273
     49 H           5.1317   -4.0254    4.8206 H       1  UNL11       0.0273
     50 H           4.6668   -1.4795    4.5746 H       1  UNL11       0.0273
     51 H           3.5796   -1.9316    3.1523 H       1  UNL11       0.0273
     52 H           5.3900   -2.8674   -1.0748 H       1  UNL11       0.0480
     53 H           3.9543   -3.9532   -0.9266 H       1  UNL11       0.0480
     54 H           3.4160   -1.9444   -2.1442 H       1  UNL11       0.0480
     55 H           3.9178   -0.9366   -0.7203 H       1  UNL11       0.0480
@<TRIPOS>BOND
     1     1     2    2
     2     2     3    1
     3     2    22   am
     4     3     4   ar
     5     4     5   ar
     6     4    33    1
     7     5     6    1
     8     5    18   ar
     9     6     7    1
    10     6    34    1
    11     6    35    1
    12     7     8    2
    13     8     9    1
    14     9    10   am
    15     9    36    1
    16    10    11    2
    17    10    12    1
    18    12    13   ar
    19    13    14   ar
    20    13    37    1
    21    14    15   ar
    22    14    38    1
    23    15    16   ar
    24    15    39    1
    25    16    17   ar
    26    16    40    1
    27    17     7    1
    28    17    12   ar
    29    18    19   ar
    30    18    41    1
    31    19    20   ar
    32    19    42    1
    33    20    21    1
    34    20     3   ar
    35    22    23    1
    36    23    24    1
    37    23    43    1
    38    23    44    1
    39    24    25    1
    40    24    45    1
    41    24    46    1
    42    25    26   am
    43    25    31    1
    44    26    27    2
    45    26    28    1
    46    28    29    1
    47    28    47    1
    48    29    30    1
    49    29    48    1
    50    29    49    1
    51    30    28    1
    52    30    50    1
    53    30    51    1
    54    31    32    1
    55    31    52    1
    56    31    53    1
    57    32    22    1
    58    32    54    1
    59    32    55    1
@<TRIPOS>MOLECULE
*****
 55 59 0 0 0
SMALL
GASTEIGER

@<TRIPOS>ATOM
      1 O           1.9979   -2.7600   -0.4987 O.2     1  UNL11      -0.2699
      2 C           1.0344   -2.2581   -1.1629 C.2     1  UNL11       0.2495
      3 C          -0.2898   -2.5068   -0.6383 C.ar    1  UNL11       0.0723
      4 C          -1.4526   -2.0533   -1.2326 C.ar    1  UNL11      -0.0433
      5 C          -2.6998   -2.2999   -0.7200 C.ar    1  UNL11      -0.0405
      6 C          -3.9822   -1.8218   -1.3112 C.3     1  UNL11       0.0211
      7 C          -3.7917   -1.0244   -2.5507 C.2     1  UNL11       0.1192
      8 N          -4.3667   -1.4714   -3.7176 N.2     1  UNL11      -0.0073
      9 N          -4.2833   -0.8102   -4.8477 N.am    1  UNL11      -0.0356
     10 C          -3.6330    0.3566   -4.9701 C.2     1  UNL11       0.4383
     11 O          -3.5483    0.9951   -6.0423 O.2     1  UNL11      -0.2116
     12 C          -3.0188    0.8788   -3.8268 C.ar    1  UNL11       0.1004
     13 C          -2.3270    2.0641   -3.8873 C.ar    1  UNL11      -0.0441
     14 C          -1.7116    2.5730   -2.7667 C.ar    1  UNL11      -0.0608
     15 C          -1.8128    1.8579   -1.5926 C.ar    1  UNL11      -0.0611
     16 C          -2.4941    0.6692   -1.4863 C.ar    1  UNL11      -0.0518
     17 C          -3.1122    0.1720   -2.6358 C.ar    1  UNL11       0.0192
     18 C          -2.8265   -3.0465    0.4628 C.ar    1  UNL11      -0.0555
     19 C          -1.6833   -3.5058    1.0677 C.ar    1  UNL11      -0.0254
     20 C          -0.4343   -3.2365    0.5202 C.ar    1  UNL11       0.1355
     21 F           0.6403   -3.7151    1.1625 F       1  UNL11      -0.2047
     22 N           1.3240   -1.5253   -2.3167 N.am    1  UNL11      -0.2945
     23 C           2.6849   -1.3294   -2.7669 C.3     1  UNL11       0.0308
     24 C           2.8797   -1.6294   -4.2362 C.3     1  UNL11       0.0305
     25 N           1.7666   -1.0682   -4.9847 N.am    1  UNL11      -0.2983
     26 C           2.0403   -0.2225   -6.0760 C.2     1  UNL11       0.2187
     27 O           1.0756    0.2932   -6.7403 O.2     1  UNL11      -0.2753
     28 C           3.3902    0.1256   -6.5265 C.3     1  UNL11       0.0358
     29 C           4.5163   -0.8394   -6.3469 C.3     1  UNL11      -0.0412
     30 C           4.3962    0.3072   -5.4291 C.3     1  UNL11      -0.0412
     31 C           0.4462   -1.4377   -4.5321 C.3     1  UNL11       0.0305
     32 C           0.2505   -0.9421   -3.0923 C.3     1  UNL11       0.0308
     33 H          -1.3583   -1.4859   -2.1545 H       1  UNL11       0.0629
     34 H          -4.6721   -2.6697   -1.5318 H       1  UNL11       0.0379
     35 H          -4.5122   -1.1371   -0.5820 H       1  UNL11       0.0379
     36 H          -4.7315   -1.1651   -5.7436 H       1  UNL11       0.4829
     37 H          -2.2874    2.5806   -4.8572 H       1  UNL11       0.0627
     38 H          -1.1717    3.5151   -2.8503 H       1  UNL11       0.0618
     39 H          -1.3363    2.2451   -0.7120 H       1  UNL11       0.0618
     40 H          -2.5604    0.1091   -0.5813 H       1  UNL11       0.0624
     41 H          -3.8121   -3.2518    0.8835 H       1  UNL11       0.0621
     42 H          -1.7461   -4.0885    1.9871 H       1  UNL11       0.0646
     43 H           3.3999   -1.9934   -2.2179 H       1  UNL11       0.0480
     44 H           2.9583   -0.2483   -2.6264 H       1  UNL11       0.0480
     45 H           3.8002   -1.1307   -4.5489 H       1  UNL11       0.0480
     46 H           2.9507   -2.7276   -4.3519 H       1  UNL11       0.0480
     47 H           3.4757    0.8068   -7.3871 H       1  UNL11       0.0394
     48 H           4.3014   -1.8641   -5.9637 H       1  UNL11       0.0273
     49 H           5.3245   -0.8171   -7.0986 H       1  UNL11       0.0273
     50 H           5.0299    1.2064   -5.4934 H       1  UNL11       0.0273
     51 H           4.1285    0.0438   -4.3774 H       1  UNL11       0.0273
     52 H          -0.3627   -1.0681   -5.1606 H       1  UNL11       0.0480
     53 H           0.3787   -2.5630   -4.4693 H       1  UNL11       0.0480
     54 H          -0.7468   -1.2736   -2.7727 H       1  UNL11       0.0480
     55 H           0.3122    0.1535   -3.1425 H       1  UNL11       0.0480
@<TRIPOS>BOND
     1     1     2    2
     2     2     3    1
     3     2    22   am
     4     3     4   ar
     5     4     5   ar
     6     4    33    1
     7     5     6    1
     8     5    18   ar
     9     6     7    1
    10     6    34    1
    11     6    35    1
    12     7     8    2
    13     8     9    1
    14     9    10   am
    15     9    36    1
    16    10    11    2
    17    10    12    1
    18    12    13   ar
    19    13    14   ar
    20    13    37    1
    21    14    15   ar
    22    14    38    1
    23    15    16   ar
    24    15    39    1
    25    16    17   ar
    26    16    40    1
    27    17     7    1
    28    17    12   ar
    29    18    19   ar
    30    18    41    1
    31    19    20   ar
    32    19    42    1
    33    20    21    1
    34    20     3   ar
    35    22    23    1
    36    23    24    1
    37    23    43    1
    38    23    44    1
    39    24    25    1
    40    24    45    1
    41    24    46    1
    42    25    26   am
    43    25    31    1
    44    26    27    2
    45    26    28    1
    46    28    29    1
    47    28    47    1
    48    29    30    1
    49    29    48    1
    50    29    49    1
    51    30    28    1
    52    30    50    1
    53    30    51    1
    54    31    32    1
    55    31    52    1
    56    31    53    1
    57    32    22    1
    58    32    54    1
    59    32    55    1
@<TRIPOS>MOLECULE
*****
 55 59 0 0 0
SMALL
GASTEIGER

@<TRIPOS>ATOM
      1 O           1.1158   -2.1311   -2.4273 O.2     1  UNL11      -0.2699
      2 C           1.0344   -2.2581   -1.1629 C.2     1  UNL11       0.2495
      3 C          -0.2898   -2.5068   -0.6383 C.ar    1  UNL11       0.0723
      4 C          -1.4526   -2.0533   -1.2326 C.ar    1  UNL11      -0.0433
      5 C          -2.6998   -2.2999   -0.7200 C.ar    1  UNL11      -0.0405
      6 C          -3.9822   -1.8218   -1.3112 C.3     1  UNL11       0.0211
      7 C          -3.8421   -0.5396   -2.0492 C.2     1  UNL11       0.1192
      8 N          -4.1607   -0.5102   -3.3870 N.2     1  UNL11      -0.0073
      9 N          -4.1050    0.5864   -4.1052 N.am    1  UNL11      -0.0356
     10 C          -3.7338    1.7744   -3.6048 C.2     1  UNL11       0.4383
     11 O          -3.6781    2.8255   -4.2805 O.2     1  UNL11      -0.2116
     12 C          -3.3921    1.8280   -2.2494 C.ar    1  UNL11       0.1004
     13 C          -2.9923    3.0117   -1.6779 C.ar    1  UNL11      -0.0441
     14 C          -2.6438    3.0637   -0.3478 C.ar    1  UNL11      -0.0608
     15 C          -2.7093    1.8974    0.3839 C.ar    1  UNL11      -0.0611
     16 C          -3.1034    0.6922   -0.1460 C.ar    1  UNL11      -0.0518
     17 C          -3.4539    0.6627   -1.4977 C.ar    1  UNL11       0.0192
     18 C          -2.8265   -3.0465    0.4628 C.ar    1  UNL11      -0.0555
     19 C          -1.6833   -3.5058    1.0677 C.ar    1  UNL11      -0.0254
     20 C          -0.4343   -3.2365    0.5202 C.ar    1  UNL11       0.1355
     21 F           0.6403   -3.7151    1.1625 F       1  UNL11      -0.2047
     22 N           2.2005   -2.1501   -0.4007 N.am    1  UNL11      -0.2945
     23 C           2.1805   -2.3003    1.0381 C.3     1  UNL11       0.0308
     24 C           3.2422   -3.2437    1.5574 C.3     1  UNL11       0.0305
     25 N           4.4905   -2.9802    0.8600 N.am    1  UNL11      -0.2983
     26 C           5.6534   -2.7423    1.6164 C.2     1  UNL11       0.2187
     27 O           5.5970   -2.7609    2.8948 O.2     1  UNL11      -0.2753
     28 C           6.9690   -2.4653    1.0343 C.3     1  UNL11       0.0358
     29 C           7.0782   -1.7695   -0.2831 C.3     1  UNL11      -0.0412
     30 C           7.2795   -3.2279   -0.2193 C.3     1  UNL11      -0.0412
     31 C           4.4259   -2.9869   -0.5825 C.3     1  UNL11       0.0305
     32 C           3.4665   -1.8828   -1.0486 C.3     1  UNL11       0.0308
     33 H          -1.3583   -1.4859   -2.1545 H       1  UNL11       0.0629
     34 H          -4.4265   -2.5830   -1.9944 H       1  UNL11       0.0379
     35 H          -4.7363   -1.6248   -0.4902 H       1  UNL11       0.0379
     36 H          -4.3534    0.5976   -5.1384 H       1  UNL11       0.4829
     37 H          -2.9635    3.9027   -2.3216 H       1  UNL11       0.0627
     38 H          -2.3316    4.0186    0.0727 H       1  UNL11       0.0618
     39 H          -2.4393    1.9260    1.4225 H       1  UNL11       0.0618
     40 H          -3.1405   -0.2129    0.4166 H       1  UNL11       0.0624
     41 H          -3.8121   -3.2518    0.8835 H       1  UNL11       0.0621
     42 H          -1.7461   -4.0885    1.9871 H       1  UNL11       0.0646
     43 H           1.2014   -2.7089    1.3959 H       1  UNL11       0.0480
     44 H           2.3895   -1.3006    1.5072 H       1  UNL11       0.0480
     45 H           3.3795   -3.0233    2.6188 H       1  UNL11       0.0480
     46 H           2.8840   -4.2785    1.3982 H       1  UNL11       0.0480
     47 H           7.8064   -2.3061    1.7310 H       1  UNL11       0.0394
     48 H           6.1568   -1.3710   -0.7683 H       1  UNL11       0.0273
     49 H           7.9650   -1.1322   -0.4451 H       1  UNL11       0.0273
     50 H           8.2705   -3.7075   -0.2646 H       1  UNL11       0.0273
     51 H           6.4842   -3.8361   -0.7139 H       1  UNL11       0.0273
     52 H           5.3900   -2.8674   -1.0748 H       1  UNL11       0.0480
     53 H           3.9543   -3.9532   -0.9266 H       1  UNL11       0.0480
     54 H           3.4160   -1.9444   -2.1442 H       1  UNL11       0.0480
     55 H           3.9178   -0.9366   -0.7203 H       1  UNL11       0.0480
@<TRIPOS>BOND
     1     1     2    2
     2     2     3    1
     3     2    22   am
     4     3     4   ar
     5     4     5   ar
     6     4    33    1
     7     5     6    1
     8     5    18   ar
     9     6     7    1
    10     6    34    1
    11     6    35    1
    12     7     8    2
    13     8     9    1
    14     9    10   am
    15     9    36    1
    16    10    11    2
    17    10    12    1
    18    12    13   ar
    19    13    14   ar
    20    13    37    1
    21    14    15   ar
    22    14    38    1
    23    15    16   ar
    24    15    39    1
    25    16    17   ar
    26    16    40    1
    27    17     7    1
    28    17    12   ar
    29    18    19   ar
    30    18    41    1
    31    19    20   ar
    32    19    42    1
    33    20    21    1
    34    20     3   ar
    35    22    23    1
    36    23    24    1
    37    23    43    1
    38    23    44    1
    39    24    25    1
    40    24    45    1
    41    24    46    1
    42    25    26   am
    43    25    31    1
    44    26    27    2
    45    26    28    1
    46    28    29    1
    47    28    47    1
    48    29    30    1
    49    29    48    1
    50    29    49    1
    51    30    28    1
    52    30    50    1
    53    30    51    1
    54    31    32    1
    55    31    52    1
    56    31    53    1
    57    32    22    1
    58    32    54    1
    59    32    55    1
@<TRIPOS>MOLECULE
*****
 55 59 0 0 0
SMALL
GASTEIGER

@<TRIPOS>ATOM
      1 O           1.9048   -3.1557   -0.9214 O.2     1  UNL11      -0.2699
      2 C           1.0344   -2.2581   -1.1629 C.2     1  UNL11       0.2495
      3 C          -0.2898   -2.5068   -0.6383 C.ar    1  UNL11       0.0723
      4 C          -1.4526   -2.0533   -1.2326 C.ar    1  UNL11      -0.0433
      5 C          -2.6998   -2.2999   -0.7200 C.ar    1  UNL11      -0.0405
      6 C          -3.9822   -1.8218   -1.3112 C.3     1  UNL11       0.0211
      7 C          -3.7917   -1.0244   -2.5507 C.2     1  UNL11       0.1192
      8 N          -4.9011   -0.5136   -3.1835 N.2     1  UNL11      -0.0073
      9 N          -4.8225    0.2341   -4.2587 N.am    1  UNL11      -0.0356
     10 C          -3.6596    0.5681   -4.8382 C.2     1  UNL11       0.4383
     11 O          -3.5739    1.2807   -5.8625 O.2     1  UNL11      -0.2116
     12 C          -2.4833    0.0860   -4.2545 C.ar    1  UNL11       0.1004
     13 C          -1.2601    0.3820   -4.8055 C.ar    1  UNL11      -0.0441
     14 C          -0.1027   -0.1017   -4.2401 C.ar    1  UNL11      -0.0608
     15 C          -0.2129   -0.8863   -3.1121 C.ar    1  UNL11      -0.0611
     16 C          -1.4145   -1.2073   -2.5275 C.ar    1  UNL11      -0.0518
     17 C          -2.5764   -0.7045   -3.1173 C.ar    1  UNL11       0.0192
     18 C          -2.8265   -3.0465    0.4628 C.ar    1  UNL11      -0.0555
     19 C          -1.6833   -3.5058    1.0677 C.ar    1  UNL11      -0.0254
     20 C          -0.4343   -3.2365    0.5202 C.ar    1  UNL11       0.1355
     21 F           0.6403   -3.7151    1.1625 F       1  UNL11      -0.2047
     22 N           1.4166   -1.1322   -1.8968 N.am    1  UNL11      -0.2945
     23 C           0.4817   -0.0683   -2.1919 C.3     1  UNL11       0.0308
     24 C           1.0240    1.3093   -1.8834 C.3     1  UNL11       0.0305
     25 N           2.4013    1.3886   -2.3424 N.am    1  UNL11      -0.2983
     26 C           2.7747    2.4495   -3.1886 C.2     1  UNL11       0.2187
     27 O           3.9785    2.5310   -3.6153 O.2     1  UNL11      -0.2753
     28 C           1.8612    3.5045   -3.6345 C.3     1  UNL11       0.0358
     29 C           2.0670    4.1699   -4.9561 C.3     1  UNL11      -0.0412
     30 C           2.4701    4.8722   -3.7249 C.3     1  UNL11      -0.0412
     31 C           3.2868    0.3470   -1.8775 C.3     1  UNL11       0.0305
     32 C           2.7751   -1.0103   -2.3803 C.3     1  UNL11       0.0308
     33 H          -1.3583   -1.4859   -2.1545 H       1  UNL11       0.0629
     34 H          -4.6721   -2.6697   -1.5318 H       1  UNL11       0.0379
     35 H          -4.5122   -1.1371   -0.5820 H       1  UNL11       0.0379
     36 H          -5.6865    0.6235   -4.7397 H       1  UNL11       0.4829
     37 H          -1.2475    1.0134   -5.7056 H       1  UNL11       0.0627
     38 H           0.8499    0.1526   -4.7028 H       1  UNL11       0.0618
     39 H           0.6835   -1.2695   -2.6626 H       1  UNL11       0.0618
     40 H          -1.5005   -1.8258   -1.6632 H       1  UNL11       0.0624
     41 H          -3.8121   -3.2518    0.8835 H       1  UNL11       0.0621
     42 H          -1.7461   -4.0885    1.9871 H       1  UNL11       0.0646
     43 H          -0.4604   -0.1708   -1.5956 H       1  UNL11       0.0480
     44 H           0.2586   -0.0806   -3.2934 H       1  UNL11       0.0480
     45 H           0.4238    2.0270   -2.4480 H       1  UNL11       0.0480
     46 H           0.9360    1.4723   -0.7925 H       1  UNL11       0.0480
     47 H           0.8200    3.4543   -3.2805 H       1  UNL11       0.0394
     48 H           2.8565    3.7863   -5.6435 H       1  UNL11       0.0273
     49 H           1.1674    4.5298   -5.4852 H       1  UNL11       0.0273
     50 H           1.8896    5.6942   -3.2760 H       1  UNL11       0.0273
     51 H           3.5716    5.0024   -3.5950 H       1  UNL11       0.0273
     52 H           4.3270    0.4789   -2.1715 H       1  UNL11       0.0480
     53 H           3.2272    0.2869   -0.7517 H       1  UNL11       0.0480
     54 H           3.4508   -1.7764   -1.9766 H       1  UNL11       0.0480
     55 H           2.8310   -0.9632   -3.4763 H       1  UNL11       0.0480
@<TRIPOS>BOND
     1     1     2    2
     2     2     3    1
     3     2    22   am
     4     3     4   ar
     5     4     5   ar
     6     4    33    1
     7     5     6    1
     8     5    18   ar
     9     6     7    1
    10     6    34    1
    11     6    35    1
    12     7     8    2
    13     8     9    1
    14     9    10   am
    15     9    36    1
    16    10    11    2
    17    10    12    1
    18    12    13   ar
    19    13    14   ar
    20    13    37    1
    21    14    15   ar
    22    14    38    1
    23    15    16   ar
    24    15    39    1
    25    16    17   ar
    26    16    40    1
    27    17     7    1
    28    17    12   ar
    29    18    19   ar
    30    18    41    1
    31    19    20   ar
    32    19    42    1
    33    20    21    1
    34    20     3   ar
    35    22    23    1
    36    23    24    1
    37    23    43    1
    38    23    44    1
    39    24    25    1
    40    24    45    1
    41    24    46    1
    42    25    26   am
    43    25    31    1
    44    26    27    2
    45    26    28    1
    46    28    29    1
    47    28    47    1
    48    29    30    1
    49    29    48    1
    50    29    49    1
    51    30    28    1
    52    30    50    1
    53    30    51    1
    54    31    32    1
    55    31    52    1
    56    31    53    1
    57    32    22    1
    58    32    54    1
    59    32    55    1
@<TRIPOS>MOLECULE
*****
 55 59 0 0 0
SMALL
GASTEIGER

@<TRIPOS>ATOM
      1 O           1.9979   -2.7600   -0.4987 O.2     1  UNL11      -0.2699
      2 C           1.0344   -2.2581   -1.1629 C.2     1  UNL11       0.2495
      3 C          -0.2898   -2.5068   -0.6383 C.ar    1  UNL11       0.0723
      4 C          -1.4526   -2.0533   -1.2326 C.ar    1  UNL11      -0.0433
      5 C          -2.6998   -2.2999   -0.7200 C.ar    1  UNL11      -0.0405
      6 C          -3.9822   -1.8218   -1.3112 C.3     1  UNL11       0.0211
      7 C          -3.7917   -1.0244   -2.5507 C.2     1  UNL11       0.1192
      8 N          -4.7020   -0.0363   -2.8458 N.2     1  UNL11      -0.0073
      9 N          -4.5886    0.7412   -3.8966 N.am    1  UNL11      -0.0356
     10 C          -3.5804    0.6454   -4.7762 C.2     1  UNL11       0.4383
     11 O          -3.4628    1.3820   -5.7802 O.2     1  UNL11      -0.2116
     12 C          -2.6120   -0.3376   -4.5469 C.ar    1  UNL11       0.1004
     13 C          -1.5601   -0.4956   -5.4163 C.ar    1  UNL11      -0.0441
     14 C          -0.6134   -1.4703   -5.1991 C.ar    1  UNL11      -0.0608
     15 C          -0.7566   -2.2749   -4.0890 C.ar    1  UNL11      -0.0611
     16 C          -1.7918   -2.1524   -3.1935 C.ar    1  UNL11      -0.0518
     17 C          -2.7405   -1.1556   -3.4327 C.ar    1  UNL11       0.0192
     18 C          -2.8265   -3.0465    0.4628 C.ar    1  UNL11      -0.0555
     19 C          -1.6833   -3.5058    1.0677 C.ar    1  UNL11      -0.0254
     20 C          -0.4343   -3.2365    0.5202 C.ar    1  UNL11       0.1355
     21 F           0.6403   -3.7151    1.1625 F       1  UNL11      -0.2047
     22 N           1.3240   -1.5253   -2.3167 N.am    1  UNL11      -0.2945
     23 C           0.2778   -0.9148   -3.1078 C.3     1  UNL11       0.0308
     24 C           0.5501    0.5335   -3.4472 C.3     1  UNL11       0.0305
     25 N           1.9449    0.6741   -3.8333 N.am    1  UNL11      -0.2983
     26 C           2.2507    1.2985   -5.0571 C.2     1  UNL11       0.2187
     27 O           3.4710    1.4207   -5.4228 O.2     1  UNL11      -0.2753
     28 C           1.2462    1.8384   -5.9769 C.3     1  UNL11       0.0358
     29 C          -0.0457    2.3736   -5.4513 C.3     1  UNL11      -0.0412
     30 C          -0.0185    1.0379   -6.0732 C.3     1  UNL11      -0.0412
     31 C           2.9173    0.1489   -2.9041 C.3     1  UNL11       0.0305
     32 C           2.6967   -1.3620   -2.7450 C.3     1  UNL11       0.0308
     33 H          -1.3583   -1.4859   -2.1545 H       1  UNL11       0.0629
     34 H          -4.6721   -2.6697   -1.5318 H       1  UNL11       0.0379
     35 H          -4.5122   -1.1371   -0.5820 H       1  UNL11       0.0379
     36 H          -5.2982    1.5017   -4.1151 H       1  UNL11       0.4829
     37 H          -1.5092    0.1816   -6.2810 H       1  UNL11       0.0627
     38 H           0.2073   -1.5677   -5.9083 H       1  UNL11       0.0618
     39 H          -0.0242   -3.0390   -3.9097 H       1  UNL11       0.0618
     40 H          -1.9103   -2.7840   -2.3426 H       1  UNL11       0.0624
     41 H          -3.8121   -3.2518    0.8835 H       1  UNL11       0.0621
     42 H          -1.7461   -4.0885    1.9871 H       1  UNL11       0.0646
     43 H          -0.7048   -0.9276   -2.5713 H       1  UNL11       0.0480
     44 H           0.2030   -1.4602   -4.0877 H       1  UNL11       0.0480
     45 H          -0.0788    0.7887   -4.3035 H       1  UNL11       0.0480
     46 H           0.2979    1.1435   -2.5592 H       1  UNL11       0.0480
     47 H           1.6093    2.2948   -6.9106 H       1  UNL11       0.0394
     48 H          -0.1954    2.4546   -4.3495 H       1  UNL11       0.0273
     49 H          -0.5177    3.1967   -6.0157 H       1  UNL11       0.0273
     50 H          -0.3889    0.8332   -7.0906 H       1  UNL11       0.0273
     51 H          -0.1953    0.1871   -5.3718 H       1  UNL11       0.0273
     52 H           3.9524    0.3414   -3.1822 H       1  UNL11       0.0480
     53 H           2.7238    0.5853   -1.8810 H       1  UNL11       0.0480
     54 H           3.4279   -1.7160   -2.0057 H       1  UNL11       0.0480
     55 H           2.8848   -1.7974   -3.7358 H       1  UNL11       0.0480
@<TRIPOS>BOND
     1     1     2    2
     2     2     3    1
     3     2    22   am
     4     3     4   ar
     5     4     5   ar
     6     4    33    1
     7     5     6    1
     8     5    18   ar
     9     6     7    1
    10     6    34    1
    11     6    35    1
    12     7     8    2
    13     8     9    1
    14     9    10   am
    15     9    36    1
    16    10    11    2
    17    10    12    1
    18    12    13   ar
    19    13    14   ar
    20    13    37    1
    21    14    15   ar
    22    14    38    1
    23    15    16   ar
    24    15    39    1
    25    16    17   ar
    26    16    40    1
    27    17     7    1
    28    17    12   ar
    29    18    19   ar
    30    18    41    1
    31    19    20   ar
    32    19    42    1
    33    20    21    1
    34    20     3   ar
    35    22    23    1
    36    23    24    1
    37    23    43    1
    38    23    44    1
    39    24    25    1
    40    24    45    1
    41    24    46    1
    42    25    26   am
    43    25    31    1
    44    26    27    2
    45    26    28    1
    46    28    29    1
    47    28    47    1
    48    29    30    1
    49    29    48    1
    50    29    49    1
    51    30    28    1
    52    30    50    1
    53    30    51    1
    54    31    32    1
    55    31    52    1
    56    31    53    1
    57    32    22    1
    58    32    54    1
    59    32    55    1
