@<TRIPOS>MOLECULE
*****
 49 52 0 0 0
SMALL
GASTEIGER

@<TRIPOS>ATOM
      1 O           0.2701   -3.5641    1.8272 O.2     1  UNL11      -0.2687
      2 C           0.8552   -2.4423    1.8029 C.2     1  UNL11       0.2601
      3 N           1.9261   -2.3045    0.9117 N.am    1  UNL11      -0.2301
      4 N           2.6875   -1.1262    0.7760 N.am    1  UNL11      -0.2301
      5 C           2.1449    0.1582    1.0146 C.2     1  UNL11       0.2602
      6 O           2.9493    1.1357    0.8386 O.2     1  UNL11      -0.2687
      7 C           0.7995    0.4582    1.4294 C.ar    1  UNL11       0.0400
      8 C           0.5929    1.5971    2.2108 C.ar    1  UNL11      -0.0495
      9 C          -0.6616    1.9109    2.6416 C.ar    1  UNL11      -0.0592
     10 C          -1.7467    1.1171    2.3186 C.ar    1  UNL11      -0.0350
     11 C          -1.5881   -0.0296    1.5410 C.ar    1  UNL11       0.1094
     12 S          -2.9718   -0.9978    1.2066 S.O2    1  UNL11       0.0747
     13 O          -4.2049   -0.4788    1.9428 O.2     1  UNL11      -0.1498
     14 O          -2.7223   -2.3562    1.8570 O.2     1  UNL11      -0.1498
     15 N          -3.3526   -1.1773   -0.4444 N.pl3   1  UNL11      -0.2024
     16 C          -4.2233   -0.3272   -1.2200 C.3     1  UNL11       0.0390
     17 C          -3.9936   -0.6214   -2.6647 C.3     1  UNL11      -0.0083
     18 C          -3.2152   -1.8952   -2.6239 C.ar    1  UNL11      -0.0232
     19 C          -2.8644   -2.7070   -3.6839 C.ar    1  UNL11      -0.0567
     20 C          -2.1386   -3.8590   -3.4868 C.ar    1  UNL11      -0.0614
     21 C          -1.7794   -4.1645   -2.1914 C.ar    1  UNL11      -0.0599
     22 C          -2.1291   -3.3540   -1.1305 C.ar    1  UNL11      -0.0388
     23 C          -2.8612   -2.1908   -1.3250 C.ar    1  UNL11       0.0545
     24 C          -0.3092   -0.3024    1.1314 C.ar    1  UNL11      -0.0229
     25 C           0.3834   -1.3713    2.6966 C.ar    1  UNL11       0.0382
     26 C           0.5243   -0.0459    2.2863 C.ar    1  UNL11      -0.0496
     27 C           0.0981    0.9971    3.0814 C.ar    1  UNL11      -0.0610
     28 C          -0.4906    0.7583    4.3290 C.ar    1  UNL11      -0.0617
     29 C          -0.6254   -0.5459    4.7250 C.ar    1  UNL11      -0.0610
     30 C          -0.1893   -1.5889    3.9085 C.ar    1  UNL11      -0.0496
     31 H           2.1959   -3.1055    0.3030 H       1  UNL11       0.1731
     32 H           3.6940   -1.1695    0.4895 H       1  UNL11       0.1731
     33 H           1.4486    2.2404    2.4774 H       1  UNL11       0.0625
     34 H          -0.8114    2.8077    3.2555 H       1  UNL11       0.0618
     35 H          -2.7343    1.3848    2.6691 H       1  UNL11       0.0637
     36 H          -5.2717   -0.4355   -0.8838 H       1  UNL11       0.0485
     37 H          -3.9665    0.7593   -1.0670 H       1  UNL11       0.0485
     38 H          -3.3608    0.1792   -3.1520 H       1  UNL11       0.0330
     39 H          -4.9133   -0.7156   -3.2758 H       1  UNL11       0.0330
     40 H          -3.1430   -2.4721   -4.7001 H       1  UNL11       0.0621
     41 H          -1.8545   -4.5118   -4.3265 H       1  UNL11       0.0618
     42 H          -1.2089   -5.0704   -2.0315 H       1  UNL11       0.0618
     43 H          -1.8501   -3.5902   -0.1099 H       1  UNL11       0.0637
     44 H          -0.1693   -1.1934    0.5223 H       1  UNL11       0.0645
     45 H           0.9828    0.1673    1.3131 H       1  UNL11       0.0625
     46 H           0.1881    2.0368    2.8022 H       1  UNL11       0.0618
     47 H          -0.8350    1.5578    4.9738 H       1  UNL11       0.0618
     48 H          -1.0714   -0.8441    5.6794 H       1  UNL11       0.0618
     49 H          -0.3055   -2.6097    4.2382 H       1  UNL11       0.0625
@<TRIPOS>BOND
     1     1     2    2
     2     2     3   am
     3     2    25    1
     4     3     4    1
     5     3    31    1
     6     4     5   am
     7     4    32    1
     8     5     6    2
     9     5     7    1
    10     7     8   ar
    11     8     9   ar
    12     8    33    1
    13     9    10   ar
    14     9    34    1
    15    10    11   ar
    16    10    35    1
    17    11    12    1
    18    11    24   ar
    19    12    13    2
    20    12    14    2
    21    12    15    1
    22    15    16    1
    23    16    17    1
    24    16    36    1
    25    16    37    1
    26    17    18    1
    27    17    38    1
    28    17    39    1
    29    18    19   ar
    30    19    20   ar
    31    19    40    1
    32    20    21   ar
    33    20    41    1
    34    21    22   ar
    35    21    42    1
    36    22    23   ar
    37    22    43    1
    38    23    15    1
    39    23    18   ar
    40    24     7   ar
    41    24    44    1
    42    25    26   ar
    43    26    27   ar
    44    26    45    1
    45    27    28   ar
    46    27    46    1
    47    28    29   ar
    48    28    47    1
    49    29    30   ar
    50    29    48    1
    51    30    25   ar
    52    30    49    1
@<TRIPOS>MOLECULE
*****
 49 52 0 0 0
SMALL
GASTEIGER

@<TRIPOS>ATOM
      1 O           2.4102    3.3969    3.7419 O.2     1  UNL11      -0.2687
      2 C           2.3315    2.2968    3.1215 C.2     1  UNL11       0.2601
      3 N           3.2707    2.0715    2.1079 N.am    1  UNL11      -0.2301
      4 N           3.3074    0.9054    1.3171 N.am    1  UNL11      -0.2301
      5 C           2.1449    0.1582    1.0146 C.2     1  UNL11       0.2602
      6 O           2.3325   -0.8838    0.2986 O.2     1  UNL11      -0.2687
      7 C           0.7995    0.4582    1.4294 C.ar    1  UNL11       0.0400
      8 C           0.5929    1.5971    2.2108 C.ar    1  UNL11      -0.0495
      9 C          -0.6616    1.9109    2.6416 C.ar    1  UNL11      -0.0592
     10 C          -1.7467    1.1171    2.3186 C.ar    1  UNL11      -0.0350
     11 C          -1.5881   -0.0296    1.5410 C.ar    1  UNL11       0.1094
     12 S          -2.9718   -0.9978    1.2066 S.O2    1  UNL11       0.0747
     13 O          -4.0766   -0.1787    0.5431 O.2     1  UNL11      -0.1498
     14 O          -3.5783   -1.3744    2.5560 O.2     1  UNL11      -0.1498
     15 N          -2.6775   -2.3874    0.2656 N.pl3   1  UNL11      -0.2024
     16 C          -2.7319   -2.4746   -1.1738 C.3     1  UNL11       0.0390
     17 C          -2.0681   -3.7451   -1.5876 C.3     1  UNL11      -0.0083
     18 C          -1.9570   -4.4955   -0.3012 C.ar    1  UNL11      -0.0232
     19 C          -1.5593   -5.8044   -0.1165 C.ar    1  UNL11      -0.0567
     20 C          -1.5066   -6.3604    1.1408 C.ar    1  UNL11      -0.0614
     21 C          -1.8668   -5.5569    2.2015 C.ar    1  UNL11      -0.0599
     22 C          -2.2646   -4.2480    2.0187 C.ar    1  UNL11      -0.0388
     23 C          -2.3189   -3.6833    0.7519 C.ar    1  UNL11       0.0545
     24 C          -0.3092   -0.3024    1.1314 C.ar    1  UNL11      -0.0229
     25 C           1.2770    1.3396    3.4959 C.ar    1  UNL11       0.0382
     26 C           0.3986    1.6793    4.5246 C.ar    1  UNL11      -0.0496
     27 C          -0.6090    0.8226    4.9152 C.ar    1  UNL11      -0.0610
     28 C          -0.7824   -0.4183    4.2908 C.ar    1  UNL11      -0.0617
     29 C           0.0842   -0.7447    3.2817 C.ar    1  UNL11      -0.0610
     30 C           1.0977    0.1333    2.8987 C.ar    1  UNL11      -0.0496
     31 H           3.9945    2.7931    1.9067 H       1  UNL11       0.1731
     32 H           4.2124    0.5532    0.9247 H       1  UNL11       0.1731
     33 H           1.4486    2.2404    2.4774 H       1  UNL11       0.0625
     34 H          -0.8114    2.8077    3.2555 H       1  UNL11       0.0618
     35 H          -2.7343    1.3848    2.6691 H       1  UNL11       0.0637
     36 H          -3.7723   -2.3551   -1.5306 H       1  UNL11       0.0485
     37 H          -2.1496   -1.6359   -1.6505 H       1  UNL11       0.0485
     38 H          -1.0291   -3.5540   -1.9912 H       1  UNL11       0.0330
     39 H          -2.6083   -4.3255   -2.3621 H       1  UNL11       0.0330
     40 H          -1.2760   -6.4377   -0.9437 H       1  UNL11       0.0621
     41 H          -1.1903   -7.4033    1.2969 H       1  UNL11       0.0618
     42 H          -1.8277   -5.9905    3.1925 H       1  UNL11       0.0618
     43 H          -2.5498   -3.6123    2.8492 H       1  UNL11       0.0637
     44 H          -0.1693   -1.1934    0.5223 H       1  UNL11       0.0645
     45 H           0.5141    2.6458    5.0297 H       1  UNL11       0.0625
     46 H          -1.3101    1.0462    5.7061 H       1  UNL11       0.0618
     47 H          -1.5653   -1.1105    4.5766 H       1  UNL11       0.0618
     48 H           0.0378   -1.6877    2.7273 H       1  UNL11       0.0618
     49 H           1.7695   -0.1420    2.1006 H       1  UNL11       0.0625
@<TRIPOS>BOND
     1     1     2    2
     2     2     3   am
     3     2    25    1
     4     3     4    1
     5     3    31    1
     6     4     5   am
     7     4    32    1
     8     5     6    2
     9     5     7    1
    10     7     8   ar
    11     8     9   ar
    12     8    33    1
    13     9    10   ar
    14     9    34    1
    15    10    11   ar
    16    10    35    1
    17    11    12    1
    18    11    24   ar
    19    12    13    2
    20    12    14    2
    21    12    15    1
    22    15    16    1
    23    16    17    1
    24    16    36    1
    25    16    37    1
    26    17    18    1
    27    17    38    1
    28    17    39    1
    29    18    19   ar
    30    19    20   ar
    31    19    40    1
    32    20    21   ar
    33    20    41    1
    34    21    22   ar
    35    21    42    1
    36    22    23   ar
    37    22    43    1
    38    23    15    1
    39    23    18   ar
    40    24     7   ar
    41    24    44    1
    42    25    26   ar
    43    26    27   ar
    44    26    45    1
    45    27    28   ar
    46    27    46    1
    47    28    29   ar
    48    28    47    1
    49    29    30   ar
    50    29    48    1
    51    30    25   ar
    52    30    49    1
@<TRIPOS>MOLECULE
*****
 49 52 0 0 0
SMALL
GASTEIGER

@<TRIPOS>ATOM
      1 O           3.0879   -3.4325   -0.6836 O.2     1  UNL11      -0.2687
      2 C           2.1457   -3.4654    0.1605 C.2     1  UNL11       0.2601
      3 N           1.9261   -2.3045    0.9117 N.am    1  UNL11      -0.2301
      4 N           2.6875   -1.1262    0.7760 N.am    1  UNL11      -0.2301
      5 C           2.1449    0.1582    1.0146 C.2     1  UNL11       0.2602
      6 O           2.9493    1.1357    0.8386 O.2     1  UNL11      -0.2687
      7 C           0.7995    0.4582    1.4294 C.ar    1  UNL11       0.0400
      8 C           0.5929    1.5971    2.2108 C.ar    1  UNL11      -0.0495
      9 C          -0.6616    1.9109    2.6416 C.ar    1  UNL11      -0.0592
     10 C          -1.7467    1.1171    2.3186 C.ar    1  UNL11      -0.0350
     11 C          -1.5881   -0.0296    1.5410 C.ar    1  UNL11       0.1094
     12 S          -2.9718   -0.9978    1.2066 S.O2    1  UNL11       0.0747
     13 O          -4.0766   -0.1787    0.5431 O.2     1  UNL11      -0.1498
     14 O          -3.5783   -1.3744    2.5560 O.2     1  UNL11      -0.1498
     15 N          -2.6775   -2.3874    0.2656 N.pl3   1  UNL11      -0.2024
     16 C          -2.3410   -3.7009    0.7594 C.3     1  UNL11       0.0390
     17 C          -2.5237   -4.6768   -0.3544 C.3     1  UNL11      -0.0083
     18 C          -2.6442   -3.7937   -1.5527 C.ar    1  UNL11      -0.0232
     19 C          -2.6739   -4.1686   -2.8808 C.ar    1  UNL11      -0.0567
     20 C          -2.7902   -3.2314   -3.8813 C.ar    1  UNL11      -0.0614
     21 C          -2.8751   -1.9092   -3.5004 C.ar    1  UNL11      -0.0599
     22 C          -2.8457   -1.5326   -2.1730 C.ar    1  UNL11      -0.0388
     23 C          -2.7286   -2.4750   -1.1606 C.ar    1  UNL11       0.0545
     24 C          -0.3092   -0.3024    1.1314 C.ar    1  UNL11      -0.0229
     25 C           1.3535   -4.6989    0.2988 C.ar    1  UNL11       0.0382
     26 C           1.1962   -5.5224   -0.8158 C.ar    1  UNL11      -0.0496
     27 C           0.4670   -6.6906   -0.7434 C.ar    1  UNL11      -0.0610
     28 C          -0.1405   -7.0880    0.4537 C.ar    1  UNL11      -0.0617
     29 C           0.0184   -6.2740    1.5437 C.ar    1  UNL11      -0.0610
     30 C           0.7594   -5.0960    1.4535 C.ar    1  UNL11      -0.0496
     31 H           1.1608   -2.2852    1.6181 H       1  UNL11       0.1731
     32 H           3.6940   -1.1695    0.4895 H       1  UNL11       0.1731
     33 H           1.4486    2.2404    2.4774 H       1  UNL11       0.0625
     34 H          -0.8114    2.8077    3.2555 H       1  UNL11       0.0618
     35 H          -2.7343    1.3848    2.6691 H       1  UNL11       0.0637
     36 H          -1.3328   -3.6976    1.2149 H       1  UNL11       0.0485
     37 H          -3.0444   -4.0144    1.5820 H       1  UNL11       0.0485
     38 H          -3.4829   -5.2637   -0.2340 H       1  UNL11       0.0330
     39 H          -1.7084   -5.4193   -0.4655 H       1  UNL11       0.0330
     40 H          -2.6080   -5.2025   -3.1843 H       1  UNL11       0.0621
     41 H          -2.8149   -3.5219   -4.9429 H       1  UNL11       0.0618
     42 H          -2.9659   -1.1683   -4.2843 H       1  UNL11       0.0618
     43 H          -2.9111   -0.4942   -1.8683 H       1  UNL11       0.0637
     44 H          -0.1693   -1.1934    0.5223 H       1  UNL11       0.0645
     45 H           1.6621   -5.2327   -1.7653 H       1  UNL11       0.0625
     46 H           0.3204   -7.3564   -1.5814 H       1  UNL11       0.0618
     47 H          -0.7183   -8.0003    0.5396 H       1  UNL11       0.0618
     48 H          -0.4129   -6.4899    2.5266 H       1  UNL11       0.0618
     49 H           0.8738   -4.4689    2.3240 H       1  UNL11       0.0625
@<TRIPOS>BOND
     1     1     2    2
     2     2     3   am
     3     2    25    1
     4     3     4    1
     5     3    31    1
     6     4     5   am
     7     4    32    1
     8     5     6    2
     9     5     7    1
    10     7     8   ar
    11     8     9   ar
    12     8    33    1
    13     9    10   ar
    14     9    34    1
    15    10    11   ar
    16    10    35    1
    17    11    12    1
    18    11    24   ar
    19    12    13    2
    20    12    14    2
    21    12    15    1
    22    15    16    1
    23    16    17    1
    24    16    36    1
    25    16    37    1
    26    17    18    1
    27    17    38    1
    28    17    39    1
    29    18    19   ar
    30    19    20   ar
    31    19    40    1
    32    20    21   ar
    33    20    41    1
    34    21    22   ar
    35    21    42    1
    36    22    23   ar
    37    22    43    1
    38    23    15    1
    39    23    18   ar
    40    24     7   ar
    41    24    44    1
    42    25    26   ar
    43    26    27   ar
    44    26    45    1
    45    27    28   ar
    46    27    46    1
    47    28    29   ar
    48    28    47    1
    49    29    30   ar
    50    29    48    1
    51    30    25   ar
    52    30    49    1
@<TRIPOS>MOLECULE
*****
 49 52 0 0 0
SMALL
GASTEIGER

@<TRIPOS>ATOM
      1 O           1.3747   -4.4445    0.3796 O.2     1  UNL11      -0.2687
      2 C           2.1457   -3.4654    0.1605 C.2     1  UNL11       0.2601
      3 N           1.9261   -2.3045    0.9117 N.am    1  UNL11      -0.2301
      4 N           2.6875   -1.1262    0.7760 N.am    1  UNL11      -0.2301
      5 C           2.1449    0.1582    1.0146 C.2     1  UNL11       0.2602
      6 O           2.9493    1.1357    0.8386 O.2     1  UNL11      -0.2687
      7 C           0.7995    0.4582    1.4294 C.ar    1  UNL11       0.0400
      8 C           0.5929    1.5971    2.2108 C.ar    1  UNL11      -0.0495
      9 C          -0.6616    1.9109    2.6416 C.ar    1  UNL11      -0.0592
     10 C          -1.7467    1.1171    2.3186 C.ar    1  UNL11      -0.0350
     11 C          -1.5881   -0.0296    1.5410 C.ar    1  UNL11       0.1094
     12 S          -2.9718   -0.9978    1.2066 S.O2    1  UNL11       0.0747
     13 O          -2.7546   -2.4464    1.6382 O.2     1  UNL11      -0.1498
     14 O          -3.0782   -1.0981   -0.3130 O.2     1  UNL11      -0.1498
     15 N          -4.4327   -0.4368    1.8806 N.pl3   1  UNL11      -0.2024
     16 C          -5.3742    0.4619    1.2576 C.3     1  UNL11       0.0390
     17 C          -6.6521    0.4013    2.0254 C.3     1  UNL11      -0.0083
     18 C          -6.2526   -0.3054    3.2789 C.ar    1  UNL11      -0.0232
     19 C          -7.0066   -0.4977    4.4191 C.ar    1  UNL11      -0.0567
     20 C          -6.4966   -1.1754    5.5023 C.ar    1  UNL11      -0.0614
     21 C          -5.2067   -1.6507    5.3989 C.ar    1  UNL11      -0.0599
     22 C          -4.4515   -1.4595    4.2596 C.ar    1  UNL11      -0.0388
     23 C          -4.9623   -0.7765    3.1645 C.ar    1  UNL11       0.0545
     24 C          -0.3092   -0.3024    1.1314 C.ar    1  UNL11      -0.0229
     25 C           3.2060   -3.6039   -0.8519 C.ar    1  UNL11       0.0382
     26 C           2.9928   -4.4595   -1.9324 C.ar    1  UNL11      -0.0496
     27 C           3.9498   -4.6260   -2.9112 C.ar    1  UNL11      -0.0610
     28 C           5.1690   -3.9405   -2.8511 C.ar    1  UNL11      -0.0617
     29 C           5.3711   -3.1024   -1.7869 C.ar    1  UNL11      -0.0610
     30 C           4.3926   -2.9451   -0.8058 C.ar    1  UNL11      -0.0496
     31 H           1.1608   -2.2852    1.6181 H       1  UNL11       0.1731
     32 H           3.6940   -1.1695    0.4895 H       1  UNL11       0.1731
     33 H           1.4486    2.2404    2.4774 H       1  UNL11       0.0625
     34 H          -0.8114    2.8077    3.2555 H       1  UNL11       0.0618
     35 H          -2.7343    1.3848    2.6691 H       1  UNL11       0.0637
     36 H          -4.9377    1.4737    1.1589 H       1  UNL11       0.0485
     37 H          -5.6126    0.1307    0.2072 H       1  UNL11       0.0485
     38 H          -7.4274   -0.2203    1.4855 H       1  UNL11       0.0330
     39 H          -7.1209    1.3838    2.2334 H       1  UNL11       0.0330
     40 H          -8.0171   -0.1277    4.5050 H       1  UNL11       0.0621
     41 H          -7.0912   -1.3334    6.4152 H       1  UNL11       0.0618
     42 H          -4.8010   -2.1838    6.2491 H       1  UNL11       0.0618
     43 H          -3.4364   -1.8303    4.1736 H       1  UNL11       0.0637
     44 H          -0.1693   -1.1934    0.5223 H       1  UNL11       0.0645
     45 H           2.0458   -5.0082   -2.0019 H       1  UNL11       0.0625
     46 H           3.8255   -5.2778   -3.7637 H       1  UNL11       0.0618
     47 H           5.9382   -4.0516   -3.6059 H       1  UNL11       0.0618
     48 H           6.2863   -2.5190   -1.6430 H       1  UNL11       0.0618
     49 H           4.5705   -2.2791    0.0242 H       1  UNL11       0.0625
@<TRIPOS>BOND
     1     1     2    2
     2     2     3   am
     3     2    25    1
     4     3     4    1
     5     3    31    1
     6     4     5   am
     7     4    32    1
     8     5     6    2
     9     5     7    1
    10     7     8   ar
    11     8     9   ar
    12     8    33    1
    13     9    10   ar
    14     9    34    1
    15    10    11   ar
    16    10    35    1
    17    11    12    1
    18    11    24   ar
    19    12    13    2
    20    12    14    2
    21    12    15    1
    22    15    16    1
    23    16    17    1
    24    16    36    1
    25    16    37    1
    26    17    18    1
    27    17    38    1
    28    17    39    1
    29    18    19   ar
    30    19    20   ar
    31    19    40    1
    32    20    21   ar
    33    20    41    1
    34    21    22   ar
    35    21    42    1
    36    22    23   ar
    37    22    43    1
    38    23    15    1
    39    23    18   ar
    40    24     7   ar
    41    24    44    1
    42    25    26   ar
    43    26    27   ar
    44    26    45    1
    45    27    28   ar
    46    27    46    1
    47    28    29   ar
    48    28    47    1
    49    29    30   ar
    50    29    48    1
    51    30    25   ar
    52    30    49    1
@<TRIPOS>MOLECULE
*****
 49 52 0 0 0
SMALL
GASTEIGER

@<TRIPOS>ATOM
      1 O           6.0588   -1.1518    0.0333 O.2     1  UNL11      -0.2687
      2 C           4.8862   -0.9510    0.4644 C.2     1  UNL11       0.2601
      3 N           3.8839   -0.7515   -0.4926 N.am    1  UNL11      -0.2301
      4 N           2.5337   -0.5019   -0.1746 N.am    1  UNL11      -0.2301
      5 C           2.1449    0.1582    1.0146 C.2     1  UNL11       0.2602
      6 O           3.1019    0.5141    1.7834 O.2     1  UNL11      -0.2687
      7 C           0.7995    0.4582    1.4294 C.ar    1  UNL11       0.0400
      8 C           0.5929    1.5971    2.2108 C.ar    1  UNL11      -0.0495
      9 C          -0.6616    1.9109    2.6416 C.ar    1  UNL11      -0.0592
     10 C          -1.7467    1.1171    2.3186 C.ar    1  UNL11      -0.0350
     11 C          -1.5881   -0.0296    1.5410 C.ar    1  UNL11       0.1094
     12 S          -2.9718   -0.9978    1.2066 S.O2    1  UNL11       0.0747
     13 O          -3.2971   -1.0066   -0.2854 O.2     1  UNL11      -0.1498
     14 O          -4.1688   -0.2766    1.8211 O.2     1  UNL11      -0.1498
     15 N          -2.8848   -2.6071    1.7595 N.pl3   1  UNL11      -0.2024
     16 C          -3.3176   -3.0952    3.0467 C.3     1  UNL11       0.0390
     17 C          -3.3940   -4.5837    2.9773 C.3     1  UNL11      -0.0083
     18 C          -2.6629   -4.8947    1.7128 C.ar    1  UNL11      -0.0232
     19 C          -2.2922   -6.1346    1.2324 C.ar    1  UNL11      -0.0567
     20 C          -1.6172   -6.2622    0.0405 C.ar    1  UNL11      -0.0614
     21 C          -1.3292   -5.1035   -0.6486 C.ar    1  UNL11      -0.0599
     22 C          -1.6992   -3.8629   -0.1700 C.ar    1  UNL11      -0.0388
     23 C          -2.3804   -3.7299    1.0321 C.ar    1  UNL11       0.0545
     24 C          -0.3092   -0.3024    1.1314 C.ar    1  UNL11      -0.0229
     25 C           4.6520   -0.9390    1.9181 C.ar    1  UNL11       0.0382
     26 C           3.3546   -0.7320    2.3859 C.ar    1  UNL11      -0.0496
     27 C           3.0769   -0.7134    3.7365 C.ar    1  UNL11      -0.0610
     28 C           4.0907   -0.9017    4.6835 C.ar    1  UNL11      -0.0617
     29 C           5.3622   -1.1042    4.2163 C.ar    1  UNL11      -0.0610
     30 C           5.6258   -1.1205    2.8470 C.ar    1  UNL11      -0.0496
     31 H           4.1250   -0.7840   -1.5054 H       1  UNL11       0.1731
     32 H           1.7670   -0.8038   -0.8212 H       1  UNL11       0.1731
     33 H           1.4486    2.2404    2.4774 H       1  UNL11       0.0625
     34 H          -0.8114    2.8077    3.2555 H       1  UNL11       0.0618
     35 H          -2.7343    1.3848    2.6691 H       1  UNL11       0.0637
     36 H          -2.6682   -2.6993    3.8501 H       1  UNL11       0.0485
     37 H          -4.3557   -2.7295    3.2880 H       1  UNL11       0.0485
     38 H          -4.4639   -4.9366    2.8782 H       1  UNL11       0.0330
     39 H          -2.9630   -5.1163    3.8484 H       1  UNL11       0.0330
     40 H          -2.5156   -7.0450    1.7680 H       1  UNL11       0.0621
     41 H          -1.3182   -7.2472   -0.3499 H       1  UNL11       0.0618
     42 H          -0.7975   -5.1990   -1.5866 H       1  UNL11       0.0618
     43 H          -1.4742   -2.9487   -0.7074 H       1  UNL11       0.0637
     44 H          -0.1693   -1.1934    0.5223 H       1  UNL11       0.0645
     45 H           2.5430   -0.5815    1.6639 H       1  UNL11       0.0625
     46 H           2.0875   -0.5565    4.1410 H       1  UNL11       0.0618
     47 H           3.9014   -0.8926    5.7501 H       1  UNL11       0.0618
     48 H           6.2272   -1.2623    4.8686 H       1  UNL11       0.0618
     49 H           6.6342   -1.2827    2.4991 H       1  UNL11       0.0625
@<TRIPOS>BOND
     1     1     2    2
     2     2     3   am
     3     2    25    1
     4     3     4    1
     5     3    31    1
     6     4     5   am
     7     4    32    1
     8     5     6    2
     9     5     7    1
    10     7     8   ar
    11     8     9   ar
    12     8    33    1
    13     9    10   ar
    14     9    34    1
    15    10    11   ar
    16    10    35    1
    17    11    12    1
    18    11    24   ar
    19    12    13    2
    20    12    14    2
    21    12    15    1
    22    15    16    1
    23    16    17    1
    24    16    36    1
    25    16    37    1
    26    17    18    1
    27    17    38    1
    28    17    39    1
    29    18    19   ar
    30    19    20   ar
    31    19    40    1
    32    20    21   ar
    33    20    41    1
    34    21    22   ar
    35    21    42    1
    36    22    23   ar
    37    22    43    1
    38    23    15    1
    39    23    18   ar
    40    24     7   ar
    41    24    44    1
    42    25    26   ar
    43    26    27   ar
    44    26    45    1
    45    27    28   ar
    46    27    46    1
    47    28    29   ar
    48    28    47    1
    49    29    30   ar
    50    29    48    1
    51    30    25   ar
    52    30    49    1
@<TRIPOS>MOLECULE
*****
 49 52 0 0 0
SMALL
GASTEIGER

@<TRIPOS>ATOM
      1 O          -0.3802   -0.8390   -2.2453 O.2     1  UNL11      -0.2687
      2 C           0.3649   -0.3240   -1.3617 C.2     1  UNL11       0.2601
      3 N           1.5992   -0.9439   -1.1327 N.am    1  UNL11      -0.2301
      4 N           2.5337   -0.5019   -0.1746 N.am    1  UNL11      -0.2301
      5 C           2.1449    0.1582    1.0146 C.2     1  UNL11       0.2602
      6 O           3.1019    0.5141    1.7834 O.2     1  UNL11      -0.2687
      7 C           0.7995    0.4582    1.4294 C.ar    1  UNL11       0.0400
      8 C           0.5929    1.5971    2.2108 C.ar    1  UNL11      -0.0495
      9 C          -0.6616    1.9109    2.6416 C.ar    1  UNL11      -0.0592
     10 C          -1.7467    1.1171    2.3186 C.ar    1  UNL11      -0.0350
     11 C          -1.5881   -0.0296    1.5410 C.ar    1  UNL11       0.1094
     12 S          -2.9718   -0.9978    1.2066 S.O2    1  UNL11       0.0747
     13 O          -4.0766   -0.1787    0.5431 O.2     1  UNL11      -0.1498
     14 O          -3.5783   -1.3744    2.5560 O.2     1  UNL11      -0.1498
     15 N          -2.6775   -2.3874    0.2656 N.pl3   1  UNL11      -0.2024
     16 C          -2.7319   -2.4746   -1.1738 C.3     1  UNL11       0.0390
     17 C          -2.0681   -3.7451   -1.5876 C.3     1  UNL11      -0.0083
     18 C          -1.9570   -4.4955   -0.3012 C.ar    1  UNL11      -0.0232
     19 C          -1.5593   -5.8044   -0.1165 C.ar    1  UNL11      -0.0567
     20 C          -1.5066   -6.3604    1.1408 C.ar    1  UNL11      -0.0614
     21 C          -1.8668   -5.5569    2.2015 C.ar    1  UNL11      -0.0599
     22 C          -2.2646   -4.2480    2.0187 C.ar    1  UNL11      -0.0388
     23 C          -2.3189   -3.6833    0.7519 C.ar    1  UNL11       0.0545
     24 C          -0.3092   -0.3024    1.1314 C.ar    1  UNL11      -0.0229
     25 C          -0.1028    0.8724   -0.6418 C.ar    1  UNL11       0.0382
     26 C          -1.3548    1.3985   -0.9595 C.ar    1  UNL11      -0.0496
     27 C          -1.8442    2.5155   -0.3158 C.ar    1  UNL11      -0.0610
     28 C          -1.0983    3.1589    0.6790 C.ar    1  UNL11      -0.0617
     29 C           0.1301    2.6364    0.9853 C.ar    1  UNL11      -0.0610
     30 C           0.6102    1.5058    0.3249 C.ar    1  UNL11      -0.0496
     31 H           1.8653   -1.7830   -1.6896 H       1  UNL11       0.1731
     32 H           3.5601   -0.6524   -0.3191 H       1  UNL11       0.1731
     33 H           1.4486    2.2404    2.4774 H       1  UNL11       0.0625
     34 H          -0.8114    2.8077    3.2555 H       1  UNL11       0.0618
     35 H          -2.7343    1.3848    2.6691 H       1  UNL11       0.0637
     36 H          -3.7723   -2.3551   -1.5306 H       1  UNL11       0.0485
     37 H          -2.1496   -1.6359   -1.6505 H       1  UNL11       0.0485
     38 H          -1.0291   -3.5540   -1.9912 H       1  UNL11       0.0330
     39 H          -2.6083   -4.3255   -2.3621 H       1  UNL11       0.0330
     40 H          -1.2760   -6.4377   -0.9437 H       1  UNL11       0.0621
     41 H          -1.1903   -7.4033    1.2969 H       1  UNL11       0.0618
     42 H          -1.8277   -5.9905    3.1925 H       1  UNL11       0.0618
     43 H          -2.5498   -3.6123    2.8492 H       1  UNL11       0.0637
     44 H          -0.1693   -1.1934    0.5223 H       1  UNL11       0.0645
     45 H          -1.9582    0.9127   -1.7357 H       1  UNL11       0.0625
     46 H          -2.8074    2.9551   -0.5309 H       1  UNL11       0.0618
     47 H          -1.4581    4.0372    1.2013 H       1  UNL11       0.0618
     48 H           0.7939    3.0600    1.7459 H       1  UNL11       0.0618
     49 H           1.5801    1.1089    0.5815 H       1  UNL11       0.0625
@<TRIPOS>BOND
     1     1     2    2
     2     2     3   am
     3     2    25    1
     4     3     4    1
     5     3    31    1
     6     4     5   am
     7     4    32    1
     8     5     6    2
     9     5     7    1
    10     7     8   ar
    11     8     9   ar
    12     8    33    1
    13     9    10   ar
    14     9    34    1
    15    10    11   ar
    16    10    35    1
    17    11    12    1
    18    11    24   ar
    19    12    13    2
    20    12    14    2
    21    12    15    1
    22    15    16    1
    23    16    17    1
    24    16    36    1
    25    16    37    1
    26    17    18    1
    27    17    38    1
    28    17    39    1
    29    18    19   ar
    30    19    20   ar
    31    19    40    1
    32    20    21   ar
    33    20    41    1
    34    21    22   ar
    35    21    42    1
    36    22    23   ar
    37    22    43    1
    38    23    15    1
    39    23    18   ar
    40    24     7   ar
    41    24    44    1
    42    25    26   ar
    43    26    27   ar
    44    26    45    1
    45    27    28   ar
    46    27    46    1
    47    28    29   ar
    48    28    47    1
    49    29    30   ar
    50    29    48    1
    51    30    25   ar
    52    30    49    1
@<TRIPOS>MOLECULE
*****
 49 52 0 0 0
SMALL
GASTEIGER

@<TRIPOS>ATOM
      1 O           5.8060   -2.5949   -0.2291 O.2     1  UNL11      -0.2687
      2 C           4.5881   -2.5730    0.1135 C.2     1  UNL11       0.2601
      3 N           4.0240   -1.3179    0.3716 N.am    1  UNL11      -0.2301
      4 N           2.6875   -1.1262    0.7760 N.am    1  UNL11      -0.2301
      5 C           2.1449    0.1582    1.0146 C.2     1  UNL11       0.2602
      6 O           2.9493    1.1357    0.8386 O.2     1  UNL11      -0.2687
      7 C           0.7995    0.4582    1.4294 C.ar    1  UNL11       0.0400
      8 C           0.5929    1.5971    2.2108 C.ar    1  UNL11      -0.0495
      9 C          -0.6616    1.9109    2.6416 C.ar    1  UNL11      -0.0592
     10 C          -1.7467    1.1171    2.3186 C.ar    1  UNL11      -0.0350
     11 C          -1.5881   -0.0296    1.5410 C.ar    1  UNL11       0.1094
     12 S          -2.9718   -0.9978    1.2066 S.O2    1  UNL11       0.0747
     13 O          -4.2049   -0.4788    1.9428 O.2     1  UNL11      -0.1498
     14 O          -2.7223   -2.3562    1.8570 O.2     1  UNL11      -0.1498
     15 N          -3.3526   -1.1773   -0.4444 N.pl3   1  UNL11      -0.2024
     16 C          -3.4638   -0.1180   -1.4180 C.3     1  UNL11       0.0390
     17 C          -3.4528   -0.7332   -2.7772 C.3     1  UNL11      -0.0083
     18 C          -3.6721   -2.1817   -2.4874 C.ar    1  UNL11      -0.0232
     19 C          -3.9061   -3.1995   -3.3900 C.ar    1  UNL11      -0.0567
     20 C          -4.0902   -4.4958   -2.9674 C.ar    1  UNL11      -0.0614
     21 C          -4.0310   -4.7313   -1.6104 C.ar    1  UNL11      -0.0599
     22 C          -3.7971   -3.7149   -0.7065 C.ar    1  UNL11      -0.0388
     23 C          -3.6107   -2.4058   -1.1288 C.ar    1  UNL11       0.0545
     24 C          -0.3092   -0.3024    1.1314 C.ar    1  UNL11      -0.0229
     25 C           3.8528   -3.8445    0.2184 C.ar    1  UNL11       0.0382
     26 C           2.4827   -3.8495   -0.0423 C.ar    1  UNL11      -0.0496
     27 C           1.7446   -5.0115    0.0384 C.ar    1  UNL11      -0.0610
     28 C           2.3481   -6.2260    0.3858 C.ar    1  UNL11      -0.0617
     29 C           3.6937   -6.2130    0.6404 C.ar    1  UNL11      -0.0610
     30 C           4.4256   -5.0291    0.5540 C.ar    1  UNL11      -0.0496
     31 H           4.6059   -0.4603    0.2663 H       1  UNL11       0.1731
     32 H           2.0477   -1.9439    0.9138 H       1  UNL11       0.1731
     33 H           1.4486    2.2404    2.4774 H       1  UNL11       0.0625
     34 H          -0.8114    2.8077    3.2555 H       1  UNL11       0.0618
     35 H          -2.7343    1.3848    2.6691 H       1  UNL11       0.0637
     36 H          -4.3434    0.5172   -1.2015 H       1  UNL11       0.0485
     37 H          -2.5731    0.5704   -1.3679 H       1  UNL11       0.0485
     38 H          -2.4463   -0.6080   -3.2774 H       1  UNL11       0.0330
     39 H          -4.2094   -0.3307   -3.4800 H       1  UNL11       0.0330
     40 H          -3.9531   -3.0204   -4.4536 H       1  UNL11       0.0621
     41 H          -4.2769   -5.3133   -3.6806 H       1  UNL11       0.0618
     42 H          -4.1761   -5.7496   -1.2732 H       1  UNL11       0.0618
     43 H          -3.7507   -3.8946    0.3616 H       1  UNL11       0.0637
     44 H          -0.1693   -1.1934    0.5223 H       1  UNL11       0.0645
     45 H           1.9866   -2.9105   -0.3160 H       1  UNL11       0.0625
     46 H           0.6828   -5.0595   -0.1552 H       1  UNL11       0.0618
     47 H           1.7931   -7.1537    0.4561 H       1  UNL11       0.0618
     48 H           4.2642   -7.1050    0.9193 H       1  UNL11       0.0618
     49 H           5.4852   -5.0401    0.7574 H       1  UNL11       0.0625
@<TRIPOS>BOND
     1     1     2    2
     2     2     3   am
     3     2    25    1
     4     3     4    1
     5     3    31    1
     6     4     5   am
     7     4    32    1
     8     5     6    2
     9     5     7    1
    10     7     8   ar
    11     8     9   ar
    12     8    33    1
    13     9    10   ar
    14     9    34    1
    15    10    11   ar
    16    10    35    1
    17    11    12    1
    18    11    24   ar
    19    12    13    2
    20    12    14    2
    21    12    15    1
    22    15    16    1
    23    16    17    1
    24    16    36    1
    25    16    37    1
    26    17    18    1
    27    17    38    1
    28    17    39    1
    29    18    19   ar
    30    19    20   ar
    31    19    40    1
    32    20    21   ar
    33    20    41    1
    34    21    22   ar
    35    21    42    1
    36    22    23   ar
    37    22    43    1
    38    23    15    1
    39    23    18   ar
    40    24     7   ar
    41    24    44    1
    42    25    26   ar
    43    26    27   ar
    44    26    45    1
    45    27    28   ar
    46    27    46    1
    47    28    29   ar
    48    28    47    1
    49    29    30   ar
    50    29    48    1
    51    30    25   ar
    52    30    49    1
@<TRIPOS>MOLECULE
*****
 49 52 0 0 0
SMALL
GASTEIGER

@<TRIPOS>ATOM
      1 O           1.6623   -4.5178    1.3576 O.2     1  UNL11      -0.2687
      2 C           2.4637   -3.5408    1.2895 C.2     1  UNL11       0.2601
      3 N           1.9261   -2.3045    0.9117 N.am    1  UNL11      -0.2301
      4 N           2.6875   -1.1262    0.7760 N.am    1  UNL11      -0.2301
      5 C           2.1449    0.1582    1.0146 C.2     1  UNL11       0.2602
      6 O           2.9493    1.1357    0.8386 O.2     1  UNL11      -0.2687
      7 C           0.7995    0.4582    1.4294 C.ar    1  UNL11       0.0400
      8 C           0.5929    1.5971    2.2108 C.ar    1  UNL11      -0.0495
      9 C          -0.6616    1.9109    2.6416 C.ar    1  UNL11      -0.0592
     10 C          -1.7467    1.1171    2.3186 C.ar    1  UNL11      -0.0350
     11 C          -1.5881   -0.0296    1.5410 C.ar    1  UNL11       0.1094
     12 S          -2.9718   -0.9978    1.2066 S.O2    1  UNL11       0.0747
     13 O          -2.6290   -2.1526    0.2680 O.2     1  UNL11      -0.1498
     14 O          -3.9161   -0.1369    0.3713 O.2     1  UNL11      -0.1498
     15 N          -3.7718   -1.6214    2.5757 N.pl3   1  UNL11      -0.2024
     16 C          -4.8503   -0.9916    3.2984 C.3     1  UNL11       0.0390
     17 C          -5.4802   -2.0176    4.1798 C.3     1  UNL11      -0.0083
     18 C          -4.4864   -3.1320    4.1543 C.ar    1  UNL11      -0.0232
     19 C          -4.4817   -4.2796    4.9213 C.ar    1  UNL11      -0.0567
     20 C          -3.4902   -5.2232    4.7823 C.ar    1  UNL11      -0.0614
     21 C          -2.5075   -4.9728    3.8485 C.ar    1  UNL11      -0.0599
     22 C          -2.5106   -3.8260    3.0807 C.ar    1  UNL11      -0.0388
     23 C          -3.5092   -2.8716    3.2177 C.ar    1  UNL11       0.0545
     24 C          -0.3092   -0.3024    1.1314 C.ar    1  UNL11      -0.0229
     25 C           3.8852   -3.7598    1.6053 C.ar    1  UNL11       0.0382
     26 C           4.6197   -2.7078    2.1518 C.ar    1  UNL11      -0.0496
     27 C           5.9534   -2.8571    2.4692 C.ar    1  UNL11      -0.0610
     28 C           6.6142   -4.0720    2.2520 C.ar    1  UNL11      -0.0617
     29 C           5.8862   -5.1003    1.7148 C.ar    1  UNL11      -0.0610
     30 C           4.5381   -4.9327    1.3999 C.ar    1  UNL11      -0.0496
     31 H           0.9067   -2.2252    0.7131 H       1  UNL11       0.1731
     32 H           3.6940   -1.1695    0.4895 H       1  UNL11       0.1731
     33 H           1.4486    2.2404    2.4774 H       1  UNL11       0.0625
     34 H          -0.8114    2.8077    3.2555 H       1  UNL11       0.0618
     35 H          -2.7343    1.3848    2.6691 H       1  UNL11       0.0637
     36 H          -4.4899   -0.0861    3.8218 H       1  UNL11       0.0485
     37 H          -5.6535   -0.6348    2.5932 H       1  UNL11       0.0485
     38 H          -6.4572   -2.3880    3.7471 H       1  UNL11       0.0330
     39 H          -5.6981   -1.6785    5.2123 H       1  UNL11       0.0330
     40 H          -5.2490   -4.4805    5.6537 H       1  UNL11       0.0621
     41 H          -3.4792   -6.1413    5.3898 H       1  UNL11       0.0618
     42 H          -1.7249   -5.7122    3.7363 H       1  UNL11       0.0618
     43 H          -1.7397   -3.6238    2.3458 H       1  UNL11       0.0637
     44 H          -0.1693   -1.1934    0.5223 H       1  UNL11       0.0645
     45 H           4.1247   -1.7458    2.3311 H       1  UNL11       0.0625
     46 H           6.5584   -2.0692    2.8936 H       1  UNL11       0.0618
     47 H           7.6605   -4.2177    2.4922 H       1  UNL11       0.0618
     48 H           6.3036   -6.0905    1.5051 H       1  UNL11       0.0618
     49 H           3.9817   -5.7554    0.9785 H       1  UNL11       0.0625
@<TRIPOS>BOND
     1     1     2    2
     2     2     3   am
     3     2    25    1
     4     3     4    1
     5     3    31    1
     6     4     5   am
     7     4    32    1
     8     5     6    2
     9     5     7    1
    10     7     8   ar
    11     8     9   ar
    12     8    33    1
    13     9    10   ar
    14     9    34    1
    15    10    11   ar
    16    10    35    1
    17    11    12    1
    18    11    24   ar
    19    12    13    2
    20    12    14    2
    21    12    15    1
    22    15    16    1
    23    16    17    1
    24    16    36    1
    25    16    37    1
    26    17    18    1
    27    17    38    1
    28    17    39    1
    29    18    19   ar
    30    19    20   ar
    31    19    40    1
    32    20    21   ar
    33    20    41    1
    34    21    22   ar
    35    21    42    1
    36    22    23   ar
    37    22    43    1
    38    23    15    1
    39    23    18   ar
    40    24     7   ar
    41    24    44    1
    42    25    26   ar
    43    26    27   ar
    44    26    45    1
    45    27    28   ar
    46    27    46    1
    47    28    29   ar
    48    28    47    1
    49    29    30   ar
    50    29    48    1
    51    30    25   ar
    52    30    49    1
@<TRIPOS>MOLECULE
*****
 49 52 0 0 0
SMALL
GASTEIGER

@<TRIPOS>ATOM
      1 O           6.1571   -0.9877    0.2274 O.2     1  UNL11      -0.2687
      2 C           4.9701   -0.7965    0.6222 C.2     1  UNL11       0.2601
      3 N           4.5867    0.5286    0.8613 N.am    1  UNL11      -0.2301
      4 N           3.3074    0.9054    1.3171 N.am    1  UNL11      -0.2301
      5 C           2.1449    0.1582    1.0146 C.2     1  UNL11       0.2602
      6 O           2.3325   -0.8838    0.2986 O.2     1  UNL11      -0.2687
      7 C           0.7995    0.4582    1.4294 C.ar    1  UNL11       0.0400
      8 C           0.5929    1.5971    2.2108 C.ar    1  UNL11      -0.0495
      9 C          -0.6616    1.9109    2.6416 C.ar    1  UNL11      -0.0592
     10 C          -1.7467    1.1171    2.3186 C.ar    1  UNL11      -0.0350
     11 C          -1.5881   -0.0296    1.5410 C.ar    1  UNL11       0.1094
     12 S          -2.9718   -0.9978    1.2066 S.O2    1  UNL11       0.0747
     13 O          -2.8988   -1.6083   -0.1912 O.2     1  UNL11      -0.1498
     14 O          -4.1598   -0.0439    1.1098 O.2     1  UNL11      -0.1498
     15 N          -3.2812   -2.2385    2.3326 N.pl3   1  UNL11      -0.2024
     16 C          -3.3304   -2.0998    3.7681 C.3     1  UNL11       0.0390
     17 C          -3.9735   -3.3228    4.3312 C.3     1  UNL11      -0.0083
     18 C          -3.9597   -4.2672    3.1744 C.ar    1  UNL11      -0.0232
     19 C          -4.2918   -5.6071    3.1717 C.ar    1  UNL11      -0.0567
     20 C          -4.2295   -6.3523    2.0169 C.ar    1  UNL11      -0.0614
     21 C          -3.8229   -5.7051    0.8696 C.ar    1  UNL11      -0.0599
     22 C          -3.4907   -4.3655    0.8705 C.ar    1  UNL11      -0.0388
     23 C          -3.5524   -3.6101    2.0334 C.ar    1  UNL11       0.0545
     24 C          -0.3092   -0.3024    1.1314 C.ar    1  UNL11      -0.0229
     25 C           4.0820   -1.9571    0.8029 C.ar    1  UNL11       0.0382
     26 C           2.7706   -1.7378    1.2240 C.ar    1  UNL11      -0.0496
     27 C           1.8946   -2.7869    1.4073 C.ar    1  UNL11      -0.0610
     28 C           2.2946   -4.1086    1.1767 C.ar    1  UNL11      -0.0617
     29 C           3.5839   -4.3158    0.7636 C.ar    1  UNL11      -0.0610
     30 C           4.4569   -3.2435    0.5827 C.ar    1  UNL11      -0.0496
     31 H           5.2692    1.2991    0.7011 H       1  UNL11       0.1731
     32 H           3.1794    1.7643    1.9027 H       1  UNL11       0.1731
     33 H           1.4486    2.2404    2.4774 H       1  UNL11       0.0625
     34 H          -0.8114    2.8077    3.2555 H       1  UNL11       0.0618
     35 H          -2.7343    1.3848    2.6691 H       1  UNL11       0.0637
     36 H          -2.3248   -1.8751    4.1709 H       1  UNL11       0.0485
     37 H          -3.9785   -1.2277    4.0666 H       1  UNL11       0.0485
     38 H          -5.0462   -3.1237    4.6289 H       1  UNL11       0.0330
     39 H          -3.4703   -3.7492    5.2219 H       1  UNL11       0.0330
     40 H          -4.6109   -6.1185    4.0673 H       1  UNL11       0.0621
     41 H          -4.4928   -7.4211    2.0060 H       1  UNL11       0.0618
     42 H          -3.7716   -6.2877   -0.0412 H       1  UNL11       0.0618
     43 H          -3.1694   -3.8521   -0.0287 H       1  UNL11       0.0637
     44 H          -0.1693   -1.1934    0.5223 H       1  UNL11       0.0645
     45 H           2.4333   -0.7114    1.4117 H       1  UNL11       0.0625
     46 H           0.8718   -2.6615    1.7319 H       1  UNL11       0.0618
     47 H           1.6278   -4.9516    1.3120 H       1  UNL11       0.0618
     48 H           3.9991   -5.3071    0.5546 H       1  UNL11       0.0618
     49 H           5.4685   -3.4277    0.2556 H       1  UNL11       0.0625
@<TRIPOS>BOND
     1     1     2    2
     2     2     3   am
     3     2    25    1
     4     3     4    1
     5     3    31    1
     6     4     5   am
     7     4    32    1
     8     5     6    2
     9     5     7    1
    10     7     8   ar
    11     8     9   ar
    12     8    33    1
    13     9    10   ar
    14     9    34    1
    15    10    11   ar
    16    10    35    1
    17    11    12    1
    18    11    24   ar
    19    12    13    2
    20    12    14    2
    21    12    15    1
    22    15    16    1
    23    16    17    1
    24    16    36    1
    25    16    37    1
    26    17    18    1
    27    17    38    1
    28    17    39    1
    29    18    19   ar
    30    19    20   ar
    31    19    40    1
    32    20    21   ar
    33    20    41    1
    34    21    22   ar
    35    21    42    1
    36    22    23   ar
    37    22    43    1
    38    23    15    1
    39    23    18   ar
    40    24     7   ar
    41    24    44    1
    42    25    26   ar
    43    26    27   ar
    44    26    45    1
    45    27    28   ar
    46    27    46    1
    47    28    29   ar
    48    28    47    1
    49    29    30   ar
    50    29    48    1
    51    30    25   ar
    52    30    49    1
@<TRIPOS>MOLECULE
*****
 49 52 0 0 0
SMALL
GASTEIGER

@<TRIPOS>ATOM
      1 O           5.9386   -0.7021   -0.6877 O.2     1  UNL11      -0.2687
      2 C           4.7501   -0.3903   -0.3851 C.2     1  UNL11       0.2601
      3 N           4.0240   -1.3179    0.3716 N.am    1  UNL11      -0.2301
      4 N           2.6875   -1.1262    0.7760 N.am    1  UNL11      -0.2301
      5 C           2.1449    0.1582    1.0146 C.2     1  UNL11       0.2602
      6 O           2.9493    1.1357    0.8386 O.2     1  UNL11      -0.2687
      7 C           0.7995    0.4582    1.4294 C.ar    1  UNL11       0.0400
      8 C           0.5929    1.5971    2.2108 C.ar    1  UNL11      -0.0495
      9 C          -0.6616    1.9109    2.6416 C.ar    1  UNL11      -0.0592
     10 C          -1.7467    1.1171    2.3186 C.ar    1  UNL11      -0.0350
     11 C          -1.5881   -0.0296    1.5410 C.ar    1  UNL11       0.1094
     12 S          -2.9718   -0.9978    1.2066 S.O2    1  UNL11       0.0747
     13 O          -2.7546   -2.4464    1.6382 O.2     1  UNL11      -0.1498
     14 O          -3.0782   -1.0981   -0.3130 O.2     1  UNL11      -0.1498
     15 N          -4.4327   -0.4368    1.8806 N.pl3   1  UNL11      -0.2024
     16 C          -4.7883   -0.4416    3.2791 C.3     1  UNL11       0.0390
     17 C          -5.9715    0.4492    3.4606 C.3     1  UNL11      -0.0083
     18 C          -6.4429    0.6639    2.0599 C.ar    1  UNL11      -0.0232
     19 C          -7.6024    1.2862    1.6431 C.ar    1  UNL11      -0.0567
     20 C          -7.9018    1.4090    0.3059 C.ar    1  UNL11      -0.0614
     21 C          -6.9976    0.8859   -0.5936 C.ar    1  UNL11      -0.0599
     22 C          -5.8377    0.2636   -0.1787 C.ar    1  UNL11      -0.0388
     23 C          -5.5319    0.1377    1.1694 C.ar    1  UNL11       0.0545
     24 C          -0.3092   -0.3024    1.1314 C.ar    1  UNL11      -0.0229
     25 C           4.2137    0.9037   -0.8391 C.ar    1  UNL11       0.0382
     26 C           5.0945    1.9715   -1.0090 C.ar    1  UNL11      -0.0496
     27 C           4.6480    3.2050   -1.4342 C.ar    1  UNL11      -0.0610
     28 C           3.2931    3.4254   -1.7091 C.ar    1  UNL11      -0.0617
     29 C           2.4343    2.3721   -1.5397 C.ar    1  UNL11      -0.0610
     30 C           2.9024    1.1310   -1.1092 C.ar    1  UNL11      -0.0496
     31 H           4.4755   -2.2097    0.6646 H       1  UNL11       0.1731
     32 H           2.0477   -1.9439    0.9138 H       1  UNL11       0.1731
     33 H           1.4486    2.2404    2.4774 H       1  UNL11       0.0625
     34 H          -0.8114    2.8077    3.2555 H       1  UNL11       0.0618
     35 H          -2.7343    1.3848    2.6691 H       1  UNL11       0.0637
     36 H          -4.9260   -1.4780    3.6409 H       1  UNL11       0.0485
     37 H          -3.9589   -0.0088    3.9072 H       1  UNL11       0.0485
     38 H          -5.6720    1.4459    3.9032 H       1  UNL11       0.0330
     39 H          -6.7709    0.0402    4.1102 H       1  UNL11       0.0330
     40 H          -8.3135    1.6976    2.3435 H       1  UNL11       0.0621
     41 H          -8.8241    1.9041   -0.0349 H       1  UNL11       0.0618
     42 H          -7.2294    0.9796   -1.6468 H       1  UNL11       0.0618
     43 H          -5.1239   -0.1504   -0.8820 H       1  UNL11       0.0637
     44 H          -0.1693   -1.1934    0.5223 H       1  UNL11       0.0645
     45 H           6.1609    1.8242   -0.7997 H       1  UNL11       0.0625
     46 H           5.2955    4.0576   -1.5786 H       1  UNL11       0.0618
     47 H           2.9146    4.3834   -2.0449 H       1  UNL11       0.0618
     48 H           1.3573    2.4349   -1.7264 H       1  UNL11       0.0618
     49 H           2.2099    0.3133   -0.9830 H       1  UNL11       0.0625
@<TRIPOS>BOND
     1     1     2    2
     2     2     3   am
     3     2    25    1
     4     3     4    1
     5     3    31    1
     6     4     5   am
     7     4    32    1
     8     5     6    2
     9     5     7    1
    10     7     8   ar
    11     8     9   ar
    12     8    33    1
    13     9    10   ar
    14     9    34    1
    15    10    11   ar
    16    10    35    1
    17    11    12    1
    18    11    24   ar
    19    12    13    2
    20    12    14    2
    21    12    15    1
    22    15    16    1
    23    16    17    1
    24    16    36    1
    25    16    37    1
    26    17    18    1
    27    17    38    1
    28    17    39    1
    29    18    19   ar
    30    19    20   ar
    31    19    40    1
    32    20    21   ar
    33    20    41    1
    34    21    22   ar
    35    21    42    1
    36    22    23   ar
    37    22    43    1
    38    23    15    1
    39    23    18   ar
    40    24     7   ar
    41    24    44    1
    42    25    26   ar
    43    26    27   ar
    44    26    45    1
    45    27    28   ar
    46    27    46    1
    47    28    29   ar
    48    28    47    1
    49    29    30   ar
    50    29    48    1
    51    30    25   ar
    52    30    49    1
@<TRIPOS>MOLECULE
*****
 49 52 0 0 0
SMALL
GASTEIGER

@<TRIPOS>ATOM
      1 O           3.4386    4.6591    0.4820 O.2     1  UNL11      -0.2687
      2 C           3.6898    3.4488    0.2112 C.2     1  UNL11       0.2601
      3 N           3.0047    2.4777    0.9514 N.am    1  UNL11      -0.2301
      4 N           3.1831    1.0901    0.7804 N.am    1  UNL11      -0.2301
      5 C           2.1449    0.1582    1.0146 C.2     1  UNL11       0.2602
      6 O           2.4559   -1.0680    0.8322 O.2     1  UNL11      -0.2687
      7 C           0.7995    0.4582    1.4294 C.ar    1  UNL11       0.0400
      8 C           0.5929    1.5971    2.2108 C.ar    1  UNL11      -0.0495
      9 C          -0.6616    1.9109    2.6416 C.ar    1  UNL11      -0.0592
     10 C          -1.7467    1.1171    2.3186 C.ar    1  UNL11      -0.0350
     11 C          -1.5881   -0.0296    1.5410 C.ar    1  UNL11       0.1094
     12 S          -2.9718   -0.9978    1.2066 S.O2    1  UNL11       0.0747
     13 O          -2.6290   -2.1526    0.2680 O.2     1  UNL11      -0.1498
     14 O          -3.9161   -0.1369    0.3713 O.2     1  UNL11      -0.1498
     15 N          -3.7718   -1.6214    2.5757 N.pl3   1  UNL11      -0.2024
     16 C          -4.5499   -0.8689    3.5298 C.3     1  UNL11       0.0390
     17 C          -5.3505   -1.8329    4.3397 C.3     1  UNL11      -0.0083
     18 C          -4.7190   -3.1460    4.0120 C.ar    1  UNL11      -0.0232
     19 C          -4.9601   -4.3713    4.6000 C.ar    1  UNL11      -0.0567
     20 C          -4.2942   -5.5017    4.1857 C.ar    1  UNL11      -0.0614
     21 C          -3.3808   -5.3567    3.1634 C.ar    1  UNL11      -0.0599
     22 C          -3.1386   -4.1324    2.5742 C.ar    1  UNL11      -0.0388
     23 C          -3.8084   -2.9896    2.9892 C.ar    1  UNL11       0.0545
     24 C          -0.3092   -0.3024    1.1314 C.ar    1  UNL11      -0.0229
     25 C           4.6686    3.1416   -0.8452 C.ar    1  UNL11       0.0382
     26 C           4.5108    1.9694   -1.5842 C.ar    1  UNL11      -0.0496
     27 C           5.3957    1.6327   -2.5868 C.ar    1  UNL11      -0.0610
     28 C           6.4835    2.4584   -2.8953 C.ar    1  UNL11      -0.0617
     29 C           6.6317    3.6075   -2.1651 C.ar    1  UNL11      -0.0610
     30 C           5.7275    3.9334   -1.1546 C.ar    1  UNL11      -0.0496
     31 H           2.3183    2.7727    1.6773 H       1  UNL11       0.1731
     32 H           4.1057    0.7034    0.4700 H       1  UNL11       0.1731
     33 H           1.4486    2.2404    2.4774 H       1  UNL11       0.0625
     34 H          -0.8114    2.8077    3.2555 H       1  UNL11       0.0618
     35 H          -2.7343    1.3848    2.6691 H       1  UNL11       0.0637
     36 H          -3.8977   -0.1960    4.1178 H       1  UNL11       0.0485
     37 H          -5.2873   -0.1960    3.0071 H       1  UNL11       0.0485
     38 H          -6.4310   -1.8527    4.0062 H       1  UNL11       0.0330
     39 H          -5.3580   -1.6359    5.4304 H       1  UNL11       0.0330
     40 H          -5.6744   -4.4902    5.4007 H       1  UNL11       0.0621
     41 H          -4.4807   -6.4827    4.6491 H       1  UNL11       0.0618
     42 H          -2.8539   -6.2433    2.8347 H       1  UNL11       0.0618
     43 H          -2.4207   -4.0128    1.7707 H       1  UNL11       0.0637
     44 H          -0.1693   -1.1934    0.5223 H       1  UNL11       0.0645
     45 H           3.6667    1.3057   -1.3613 H       1  UNL11       0.0625
     46 H           5.3105    0.7356   -3.1826 H       1  UNL11       0.0618
     47 H           7.1936    2.2192   -3.6777 H       1  UNL11       0.0618
     48 H           7.4452    4.3230   -2.3236 H       1  UNL11       0.0618
     49 H           5.8611    4.8440   -0.5915 H       1  UNL11       0.0625
@<TRIPOS>BOND
     1     1     2    2
     2     2     3   am
     3     2    25    1
     4     3     4    1
     5     3    31    1
     6     4     5   am
     7     4    32    1
     8     5     6    2
     9     5     7    1
    10     7     8   ar
    11     8     9   ar
    12     8    33    1
    13     9    10   ar
    14     9    34    1
    15    10    11   ar
    16    10    35    1
    17    11    12    1
    18    11    24   ar
    19    12    13    2
    20    12    14    2
    21    12    15    1
    22    15    16    1
    23    16    17    1
    24    16    36    1
    25    16    37    1
    26    17    18    1
    27    17    38    1
    28    17    39    1
    29    18    19   ar
    30    19    20   ar
    31    19    40    1
    32    20    21   ar
    33    20    41    1
    34    21    22   ar
    35    21    42    1
    36    22    23   ar
    37    22    43    1
    38    23    15    1
    39    23    18   ar
    40    24     7   ar
    41    24    44    1
    42    25    26   ar
    43    26    27   ar
    44    26    45    1
    45    27    28   ar
    46    27    46    1
    47    28    29   ar
    48    28    47    1
    49    29    30   ar
    50    29    48    1
    51    30    25   ar
    52    30    49    1
@<TRIPOS>MOLECULE
*****
 49 52 0 0 0
SMALL
GASTEIGER

@<TRIPOS>ATOM
      1 O           4.1519    0.6751   -0.7141 O.2     1  UNL11      -0.2687
      2 C           4.7501   -0.3903   -0.3851 C.2     1  UNL11       0.2601
      3 N           4.0240   -1.3179    0.3716 N.am    1  UNL11      -0.2301
      4 N           2.6875   -1.1262    0.7760 N.am    1  UNL11      -0.2301
      5 C           2.1449    0.1582    1.0146 C.2     1  UNL11       0.2602
      6 O           2.9493    1.1357    0.8386 O.2     1  UNL11      -0.2687
      7 C           0.7995    0.4582    1.4294 C.ar    1  UNL11       0.0400
      8 C           0.5929    1.5971    2.2108 C.ar    1  UNL11      -0.0495
      9 C          -0.6616    1.9109    2.6416 C.ar    1  UNL11      -0.0592
     10 C          -1.7467    1.1171    2.3186 C.ar    1  UNL11      -0.0350
     11 C          -1.5881   -0.0296    1.5410 C.ar    1  UNL11       0.1094
     12 S          -2.9718   -0.9978    1.2066 S.O2    1  UNL11       0.0747
     13 O          -2.6290   -2.1526    0.2680 O.2     1  UNL11      -0.1498
     14 O          -3.9161   -0.1369    0.3713 O.2     1  UNL11      -0.1498
     15 N          -3.7718   -1.6214    2.5757 N.pl3   1  UNL11      -0.2024
     16 C          -4.5499   -0.8689    3.5298 C.3     1  UNL11       0.0390
     17 C          -5.3505   -1.8329    4.3397 C.3     1  UNL11      -0.0083
     18 C          -4.7190   -3.1460    4.0120 C.ar    1  UNL11      -0.0232
     19 C          -4.9601   -4.3713    4.6000 C.ar    1  UNL11      -0.0567
     20 C          -4.2942   -5.5017    4.1857 C.ar    1  UNL11      -0.0614
     21 C          -3.3808   -5.3567    3.1634 C.ar    1  UNL11      -0.0599
     22 C          -3.1386   -4.1324    2.5742 C.ar    1  UNL11      -0.0388
     23 C          -3.8084   -2.9896    2.9892 C.ar    1  UNL11       0.0545
     24 C          -0.3092   -0.3024    1.1314 C.ar    1  UNL11      -0.0229
     25 C           6.1466   -0.5855   -0.8097 C.ar    1  UNL11       0.0382
     26 C           6.9580    0.5360   -0.9797 C.ar    1  UNL11      -0.0496
     27 C           8.2738    0.4124   -1.3735 C.ar    1  UNL11      -0.0610
     28 C           8.8383   -0.8456   -1.6162 C.ar    1  UNL11      -0.0617
     29 C           8.0351   -1.9420   -1.4472 C.ar    1  UNL11      -0.0610
     30 C           6.7065   -1.7994   -1.0482 C.ar    1  UNL11      -0.0496
     31 H           4.4755   -2.2097    0.6646 H       1  UNL11       0.1731
     32 H           2.0477   -1.9439    0.9138 H       1  UNL11       0.1731
     33 H           1.4486    2.2404    2.4774 H       1  UNL11       0.0625
     34 H          -0.8114    2.8077    3.2555 H       1  UNL11       0.0618
     35 H          -2.7343    1.3848    2.6691 H       1  UNL11       0.0637
     36 H          -3.8977   -0.1960    4.1178 H       1  UNL11       0.0485
     37 H          -5.2873   -0.1960    3.0071 H       1  UNL11       0.0485
     38 H          -6.4310   -1.8527    4.0062 H       1  UNL11       0.0330
     39 H          -5.3580   -1.6359    5.4304 H       1  UNL11       0.0330
     40 H          -5.6744   -4.4902    5.4007 H       1  UNL11       0.0621
     41 H          -4.4807   -6.4827    4.6491 H       1  UNL11       0.0618
     42 H          -2.8539   -6.2433    2.8347 H       1  UNL11       0.0618
     43 H          -2.4207   -4.0128    1.7707 H       1  UNL11       0.0637
     44 H          -0.1693   -1.1934    0.5223 H       1  UNL11       0.0645
     45 H           6.5389    1.5326   -0.7962 H       1  UNL11       0.0625
     46 H           8.9361    1.2537   -1.5168 H       1  UNL11       0.0618
     47 H           9.8687   -0.9723   -1.9257 H       1  UNL11       0.0618
     48 H           8.3749   -2.9701   -1.6093 H       1  UNL11       0.0618
     49 H           6.0904   -2.6758   -0.9196 H       1  UNL11       0.0625
@<TRIPOS>BOND
     1     1     2    2
     2     2     3   am
     3     2    25    1
     4     3     4    1
     5     3    31    1
     6     4     5   am
     7     4    32    1
     8     5     6    2
     9     5     7    1
    10     7     8   ar
    11     8     9   ar
    12     8    33    1
    13     9    10   ar
    14     9    34    1
    15    10    11   ar
    16    10    35    1
    17    11    12    1
    18    11    24   ar
    19    12    13    2
    20    12    14    2
    21    12    15    1
    22    15    16    1
    23    16    17    1
    24    16    36    1
    25    16    37    1
    26    17    18    1
    27    17    38    1
    28    17    39    1
    29    18    19   ar
    30    19    20   ar
    31    19    40    1
    32    20    21   ar
    33    20    41    1
    34    21    22   ar
    35    21    42    1
    36    22    23   ar
    37    22    43    1
    38    23    15    1
    39    23    18   ar
    40    24     7   ar
    41    24    44    1
    42    25    26   ar
    43    26    27   ar
    44    26    45    1
    45    27    28   ar
    46    27    46    1
    47    28    29   ar
    48    28    47    1
    49    29    30   ar
    50    29    48    1
    51    30    25   ar
    52    30    49    1
@<TRIPOS>MOLECULE
*****
 49 52 0 0 0
SMALL
GASTEIGER

@<TRIPOS>ATOM
      1 O          -0.2641   -3.1074   -0.2357 O.2     1  UNL11      -0.2687
      2 C           0.4494   -2.2313    0.3341 C.2     1  UNL11       0.2601
      3 N           1.6478   -1.8794   -0.2986 N.am    1  UNL11      -0.2301
      4 N           2.5575   -0.9329    0.2144 N.am    1  UNL11      -0.2301
      5 C           2.1449    0.1582    1.0146 C.2     1  UNL11       0.2602
      6 O           3.0784    0.9430    1.3969 O.2     1  UNL11      -0.2687
      7 C           0.7995    0.4582    1.4294 C.ar    1  UNL11       0.0400
      8 C           0.5929    1.5971    2.2108 C.ar    1  UNL11      -0.0495
      9 C          -0.6616    1.9109    2.6416 C.ar    1  UNL11      -0.0592
     10 C          -1.7467    1.1171    2.3186 C.ar    1  UNL11      -0.0350
     11 C          -1.5881   -0.0296    1.5410 C.ar    1  UNL11       0.1094
     12 S          -2.9718   -0.9978    1.2066 S.O2    1  UNL11       0.0747
     13 O          -4.0766   -0.1787    0.5431 O.2     1  UNL11      -0.1498
     14 O          -3.5783   -1.3744    2.5560 O.2     1  UNL11      -0.1498
     15 N          -2.6775   -2.3874    0.2656 N.pl3   1  UNL11      -0.2024
     16 C          -1.9447   -2.4415   -0.9763 C.3     1  UNL11       0.0390
     17 C          -1.6236   -3.8699   -1.2644 C.3     1  UNL11      -0.0083
     18 C          -2.5021   -4.6067   -0.3075 C.ar    1  UNL11      -0.0232
     19 C          -2.7304   -5.9666   -0.2433 C.ar    1  UNL11      -0.0567
     20 C          -3.5736   -6.5017    0.7029 C.ar    1  UNL11      -0.0614
     21 C          -4.1768   -5.6244    1.5787 C.ar    1  UNL11      -0.0599
     22 C          -3.9496   -4.2645    1.5161 C.ar    1  UNL11      -0.0388
     23 C          -3.0995   -3.7207    0.5630 C.ar    1  UNL11       0.0545
     24 C          -0.3092   -0.3024    1.1314 C.ar    1  UNL11      -0.0229
     25 C          -0.0152   -1.6471    1.6034 C.ar    1  UNL11       0.0382
     26 C           0.3432   -0.3339    1.9073 C.ar    1  UNL11      -0.0496
     27 C          -0.0656    0.2647    3.0804 C.ar    1  UNL11      -0.0610
     28 C          -0.8547   -0.4282    4.0062 C.ar    1  UNL11      -0.0617
     29 C          -1.2024   -1.7173    3.7008 C.ar    1  UNL11      -0.0610
     30 C          -0.7808   -2.3077    2.5098 C.ar    1  UNL11      -0.0496
     31 H           1.9049   -2.3300   -1.2018 H       1  UNL11       0.1731
     32 H           3.5824   -1.0123    0.0136 H       1  UNL11       0.1731
     33 H           1.4486    2.2404    2.4774 H       1  UNL11       0.0625
     34 H          -0.8114    2.8077    3.2555 H       1  UNL11       0.0618
     35 H          -2.7343    1.3848    2.6691 H       1  UNL11       0.0637
     36 H          -2.5000   -1.9184   -1.7776 H       1  UNL11       0.0485
     37 H          -0.9601   -1.9010   -0.8871 H       1  UNL11       0.0485
     38 H          -0.5435   -4.1050   -1.0257 H       1  UNL11       0.0330
     39 H          -1.7937   -4.1863   -2.3129 H       1  UNL11       0.0330
     40 H          -2.2603   -6.6578   -0.9266 H       1  UNL11       0.0621
     41 H          -3.7609   -7.5850    0.7612 H       1  UNL11       0.0618
     42 H          -4.8417   -6.0410    2.3245 H       1  UNL11       0.0618
     43 H          -4.4223   -3.5704    2.2017 H       1  UNL11       0.0637
     44 H          -0.1693   -1.1934    0.5223 H       1  UNL11       0.0645
     45 H           0.9613    0.2298    1.1983 H       1  UNL11       0.0625
     46 H           0.1892    1.2782    3.3544 H       1  UNL11       0.0618
     47 H          -1.1905    0.0170    4.9349 H       1  UNL11       0.0618
     48 H          -1.8158   -2.3479    4.3525 H       1  UNL11       0.0618
     49 H          -1.0663   -3.3241    2.2871 H       1  UNL11       0.0625
@<TRIPOS>BOND
     1     1     2    2
     2     2     3   am
     3     2    25    1
     4     3     4    1
     5     3    31    1
     6     4     5   am
     7     4    32    1
     8     5     6    2
     9     5     7    1
    10     7     8   ar
    11     8     9   ar
    12     8    33    1
    13     9    10   ar
    14     9    34    1
    15    10    11   ar
    16    10    35    1
    17    11    12    1
    18    11    24   ar
    19    12    13    2
    20    12    14    2
    21    12    15    1
    22    15    16    1
    23    16    17    1
    24    16    36    1
    25    16    37    1
    26    17    18    1
    27    17    38    1
    28    17    39    1
    29    18    19   ar
    30    19    20   ar
    31    19    40    1
    32    20    21   ar
    33    20    41    1
    34    21    22   ar
    35    21    42    1
    36    22    23   ar
    37    22    43    1
    38    23    15    1
    39    23    18   ar
    40    24     7   ar
    41    24    44    1
    42    25    26   ar
    43    26    27   ar
    44    26    45    1
    45    27    28   ar
    46    27    46    1
    47    28    29   ar
    48    28    47    1
    49    29    30   ar
    50    29    48    1
    51    30    25   ar
    52    30    49    1
@<TRIPOS>MOLECULE
*****
 49 52 0 0 0
SMALL
GASTEIGER

@<TRIPOS>ATOM
      1 O           6.8363    0.7892    0.6653 O.2     1  UNL11      -0.2687
      2 C           5.7584    1.2369    1.1541 C.2     1  UNL11       0.2601
      3 N           4.5867    0.5286    0.8613 N.am    1  UNL11      -0.2301
      4 N           3.3074    0.9054    1.3171 N.am    1  UNL11      -0.2301
      5 C           2.1449    0.1582    1.0146 C.2     1  UNL11       0.2602
      6 O           2.3325   -0.8838    0.2986 O.2     1  UNL11      -0.2687
      7 C           0.7995    0.4582    1.4294 C.ar    1  UNL11       0.0400
      8 C           0.5929    1.5971    2.2108 C.ar    1  UNL11      -0.0495
      9 C          -0.6616    1.9109    2.6416 C.ar    1  UNL11      -0.0592
     10 C          -1.7467    1.1171    2.3186 C.ar    1  UNL11      -0.0350
     11 C          -1.5881   -0.0296    1.5410 C.ar    1  UNL11       0.1094
     12 S          -2.9718   -0.9978    1.2066 S.O2    1  UNL11       0.0747
     13 O          -3.5509   -1.6006    2.4846 O.2     1  UNL11      -0.1498
     14 O          -2.4750   -2.2196    0.4378 O.2     1  UNL11      -0.1498
     15 N          -4.2209   -0.2124    0.3545 N.pl3   1  UNL11      -0.2024
     16 C          -4.0773    0.5638   -0.8535 C.3     1  UNL11       0.0390
     17 C          -5.4334    0.7584   -1.4445 C.3     1  UNL11      -0.0083
     18 C          -6.3418    0.3483   -0.3324 C.ar    1  UNL11      -0.0232
     19 C          -7.7151    0.4744   -0.2711 C.ar    1  UNL11      -0.0567
     20 C          -8.4196    0.0459    0.8301 C.ar    1  UNL11      -0.0614
     21 C          -7.6971   -0.5116    1.8635 C.ar    1  UNL11      -0.0599
     22 C          -6.3241   -0.6385    1.8039 C.ar    1  UNL11      -0.0388
     23 C          -5.6096   -0.2076    0.6945 C.ar    1  UNL11       0.0545
     24 C          -0.3092   -0.3024    1.1314 C.ar    1  UNL11      -0.0229
     25 C           5.8013    2.4522    1.9844 C.ar    1  UNL11       0.0382
     26 C           4.6117    2.9316    2.5322 C.ar    1  UNL11      -0.0496
     27 C           4.5930    4.0637    3.3193 C.ar    1  UNL11      -0.0610
     28 C           5.7702    4.7699    3.5941 C.ar    1  UNL11      -0.0617
     29 C           6.9343    4.2931    3.0525 C.ar    1  UNL11      -0.0610
     30 C           6.9357    3.1464    2.2588 C.ar    1  UNL11      -0.0496
     31 H           4.6372   -0.3299    0.2736 H       1  UNL11       0.1731
     32 H           3.1794    1.7643    1.9027 H       1  UNL11       0.1731
     33 H           1.4486    2.2404    2.4774 H       1  UNL11       0.0625
     34 H          -0.8114    2.8077    3.2555 H       1  UNL11       0.0618
     35 H          -2.7343    1.3848    2.6691 H       1  UNL11       0.0637
     36 H          -3.5193    1.4973   -0.6508 H       1  UNL11       0.0485
     37 H          -3.4678    0.0066   -1.6203 H       1  UNL11       0.0485
     38 H          -5.6004    0.0707   -2.3266 H       1  UNL11       0.0330
     39 H          -5.6473    1.7868   -1.7983 H       1  UNL11       0.0330
     40 H          -8.2854    0.9099   -1.0777 H       1  UNL11       0.0621
     41 H          -9.5147    0.1424    0.8870 H       1  UNL11       0.0618
     42 H          -8.2472   -0.8494    2.7324 H       1  UNL11       0.0618
     43 H          -5.7512   -1.0751    2.6141 H       1  UNL11       0.0637
     44 H          -0.1693   -1.1934    0.5223 H       1  UNL11       0.0645
     45 H           3.6760    2.3961    2.3312 H       1  UNL11       0.0625
     46 H           3.6948    4.4685    3.7626 H       1  UNL11       0.0618
     47 H           5.7852    5.6615    4.2093 H       1  UNL11       0.0618
     48 H           7.9095    4.7672    3.2041 H       1  UNL11       0.0618
     49 H           7.8636    2.7862    1.8423 H       1  UNL11       0.0625
@<TRIPOS>BOND
     1     1     2    2
     2     2     3   am
     3     2    25    1
     4     3     4    1
     5     3    31    1
     6     4     5   am
     7     4    32    1
     8     5     6    2
     9     5     7    1
    10     7     8   ar
    11     8     9   ar
    12     8    33    1
    13     9    10   ar
    14     9    34    1
    15    10    11   ar
    16    10    35    1
    17    11    12    1
    18    11    24   ar
    19    12    13    2
    20    12    14    2
    21    12    15    1
    22    15    16    1
    23    16    17    1
    24    16    36    1
    25    16    37    1
    26    17    18    1
    27    17    38    1
    28    17    39    1
    29    18    19   ar
    30    19    20   ar
    31    19    40    1
    32    20    21   ar
    33    20    41    1
    34    21    22   ar
    35    21    42    1
    36    22    23   ar
    37    22    43    1
    38    23    15    1
    39    23    18   ar
    40    24     7   ar
    41    24    44    1
    42    25    26   ar
    43    26    27   ar
    44    26    45    1
    45    27    28   ar
    46    27    46    1
    47    28    29   ar
    48    28    47    1
    49    29    30   ar
    50    29    48    1
    51    30    25   ar
    52    30    49    1
@<TRIPOS>MOLECULE
*****
 49 52 0 0 0
SMALL
GASTEIGER

@<TRIPOS>ATOM
      1 O           2.8787   -2.6963   -1.8102 O.2     1  UNL11      -0.2687
      2 C           1.7937   -2.0612   -1.9537 C.2     1  UNL11       0.2601
      3 N           1.5992   -0.9439   -1.1327 N.am    1  UNL11      -0.2301
      4 N           2.5337   -0.5019   -0.1746 N.am    1  UNL11      -0.2301
      5 C           2.1449    0.1582    1.0146 C.2     1  UNL11       0.2602
      6 O           3.1019    0.5141    1.7834 O.2     1  UNL11      -0.2687
      7 C           0.7995    0.4582    1.4294 C.ar    1  UNL11       0.0400
      8 C           0.5929    1.5971    2.2108 C.ar    1  UNL11      -0.0495
      9 C          -0.6616    1.9109    2.6416 C.ar    1  UNL11      -0.0592
     10 C          -1.7467    1.1171    2.3186 C.ar    1  UNL11      -0.0350
     11 C          -1.5881   -0.0296    1.5410 C.ar    1  UNL11       0.1094
     12 S          -2.9718   -0.9978    1.2066 S.O2    1  UNL11       0.0747
     13 O          -3.5509   -1.6006    2.4846 O.2     1  UNL11      -0.1498
     14 O          -2.4750   -2.2196    0.4378 O.2     1  UNL11      -0.1498
     15 N          -4.2209   -0.2124    0.3545 N.pl3   1  UNL11      -0.2024
     16 C          -5.3289    0.5098    0.9315 C.3     1  UNL11       0.0390
     17 C          -5.9638    1.3243   -0.1454 C.3     1  UNL11      -0.0083
     18 C          -5.3665    0.7529   -1.3892 C.ar    1  UNL11      -0.0232
     19 C          -5.7140    1.0247   -2.6972 C.ar    1  UNL11      -0.0567
     20 C          -5.0660    0.4143   -3.7461 C.ar    1  UNL11      -0.0614
     21 C          -4.0603   -0.4756   -3.4344 C.ar    1  UNL11      -0.0599
     22 C          -3.7114   -0.7484   -2.1272 C.ar    1  UNL11      -0.0388
     23 C          -4.3626   -0.1346   -1.0661 C.ar    1  UNL11       0.0545
     24 C          -0.3092   -0.3024    1.1314 C.ar    1  UNL11      -0.0229
     25 C           0.8205   -2.5274   -2.9557 C.ar    1  UNL11       0.0382
     26 C           1.1289   -3.6562   -3.7144 C.ar    1  UNL11      -0.0496
     27 C           0.2540   -4.1386   -4.6650 C.ar    1  UNL11      -0.0610
     28 C          -0.9742   -3.5090   -4.8997 C.ar    1  UNL11      -0.0617
     29 C          -1.2697   -2.4010   -4.1508 C.ar    1  UNL11      -0.0610
     30 C          -0.3739   -1.9264   -3.1932 C.ar    1  UNL11      -0.0496
     31 H           0.7210   -0.3900   -1.2163 H       1  UNL11       0.1731
     32 H           3.5601   -0.6524   -0.3191 H       1  UNL11       0.1731
     33 H           1.4486    2.2404    2.4774 H       1  UNL11       0.0625
     34 H          -0.8114    2.8077    3.2555 H       1  UNL11       0.0618
     35 H          -2.7343    1.3848    2.6691 H       1  UNL11       0.0637
     36 H          -6.0133   -0.1837    1.4556 H       1  UNL11       0.0485
     37 H          -4.9721    1.2349    1.7168 H       1  UNL11       0.0485
     38 H          -5.6702    2.4134   -0.0648 H       1  UNL11       0.0330
     39 H          -7.0716    1.2942   -0.1645 H       1  UNL11       0.0330
     40 H          -6.5006    1.7208   -2.9466 H       1  UNL11       0.0621
     41 H          -5.3367    0.6256   -4.7920 H       1  UNL11       0.0618
     42 H          -3.5482   -0.9588   -4.2565 H       1  UNL11       0.0618
     43 H          -2.9221   -1.4480   -1.8767 H       1  UNL11       0.0637
     44 H          -0.1693   -1.1934    0.5223 H       1  UNL11       0.0645
     45 H           2.0852   -4.1670   -3.5496 H       1  UNL11       0.0625
     46 H           0.4533   -5.0086   -5.2737 H       1  UNL11       0.0618
     47 H          -1.6806   -3.8662   -5.6392 H       1  UNL11       0.0618
     48 H          -2.2009   -1.8341   -4.2525 H       1  UNL11       0.0618
     49 H          -0.6258   -1.0526   -2.6126 H       1  UNL11       0.0625
@<TRIPOS>BOND
     1     1     2    2
     2     2     3   am
     3     2    25    1
     4     3     4    1
     5     3    31    1
     6     4     5   am
     7     4    32    1
     8     5     6    2
     9     5     7    1
    10     7     8   ar
    11     8     9   ar
    12     8    33    1
    13     9    10   ar
    14     9    34    1
    15    10    11   ar
    16    10    35    1
    17    11    12    1
    18    11    24   ar
    19    12    13    2
    20    12    14    2
    21    12    15    1
    22    15    16    1
    23    16    17    1
    24    16    36    1
    25    16    37    1
    26    17    18    1
    27    17    38    1
    28    17    39    1
    29    18    19   ar
    30    19    20   ar
    31    19    40    1
    32    20    21   ar
    33    20    41    1
    34    21    22   ar
    35    21    42    1
    36    22    23   ar
    37    22    43    1
    38    23    15    1
    39    23    18   ar
    40    24     7   ar
    41    24    44    1
    42    25    26   ar
    43    26    27   ar
    44    26    45    1
    45    27    28   ar
    46    27    46    1
    47    28    29   ar
    48    28    47    1
    49    29    30   ar
    50    29    48    1
    51    30    25   ar
    52    30    49    1
@<TRIPOS>MOLECULE
*****
 49 52 0 0 0
SMALL
GASTEIGER

@<TRIPOS>ATOM
      1 O           6.0170   -0.4538   -0.6071 O.2     1  UNL11      -0.2687
      2 C           4.8153   -0.1700   -0.3303 C.2     1  UNL11       0.2601
      3 N           4.5867    0.5286    0.8613 N.am    1  UNL11      -0.2301
      4 N           3.3074    0.9054    1.3171 N.am    1  UNL11      -0.2301
      5 C           2.1449    0.1582    1.0146 C.2     1  UNL11       0.2602
      6 O           2.3325   -0.8838    0.2986 O.2     1  UNL11      -0.2687
      7 C           0.7995    0.4582    1.4294 C.ar    1  UNL11       0.0400
      8 C           0.5929    1.5971    2.2108 C.ar    1  UNL11      -0.0495
      9 C          -0.6616    1.9109    2.6416 C.ar    1  UNL11      -0.0592
     10 C          -1.7467    1.1171    2.3186 C.ar    1  UNL11      -0.0350
     11 C          -1.5881   -0.0296    1.5410 C.ar    1  UNL11       0.1094
     12 S          -2.9718   -0.9978    1.2066 S.O2    1  UNL11       0.0747
     13 O          -4.2049   -0.4788    1.9428 O.2     1  UNL11      -0.1498
     14 O          -2.7223   -2.3562    1.8570 O.2     1  UNL11      -0.1498
     15 N          -3.3526   -1.1773   -0.4444 N.pl3   1  UNL11      -0.2024
     16 C          -2.8761   -2.2160   -1.3254 C.3     1  UNL11       0.0390
     17 C          -3.7209   -2.2057   -2.5553 C.3     1  UNL11      -0.0083
     18 C          -4.4485   -0.9061   -2.4470 C.ar    1  UNL11      -0.0232
     19 C          -5.2532   -0.3051   -3.3939 C.ar    1  UNL11      -0.0567
     20 C          -5.8614    0.9037   -3.1458 C.ar    1  UNL11      -0.0614
     21 C          -5.6325    1.4846   -1.9166 C.ar    1  UNL11      -0.0599
     22 C          -4.8284    0.8850   -0.9686 C.ar    1  UNL11      -0.0388
     23 C          -4.2131   -0.3346   -1.2150 C.ar    1  UNL11       0.0545
     24 C          -0.3092   -0.3024    1.1314 C.ar    1  UNL11      -0.0229
     25 C           3.7513   -0.5842   -1.2601 C.ar    1  UNL11       0.0382
     26 C           3.9403   -1.7354   -2.0243 C.ar    1  UNL11      -0.0496
     27 C           2.9767   -2.1714   -2.9092 C.ar    1  UNL11      -0.0610
     28 C           1.7753   -1.4706   -3.0695 C.ar    1  UNL11      -0.0617
     29 C           1.5972   -0.3410   -2.3157 C.ar    1  UNL11      -0.0610
     30 C           2.5818    0.0860   -1.4251 C.ar    1  UNL11      -0.0496
     31 H           5.3930    0.7964    1.4641 H       1  UNL11       0.1731
     32 H           3.1794    1.7643    1.9027 H       1  UNL11       0.1731
     33 H           1.4486    2.2404    2.4774 H       1  UNL11       0.0625
     34 H          -0.8114    2.8077    3.2555 H       1  UNL11       0.0618
     35 H          -2.7343    1.3848    2.6691 H       1  UNL11       0.0637
     36 H          -1.7903   -2.1042   -1.5054 H       1  UNL11       0.0485
     37 H          -3.0026   -3.2323   -0.8555 H       1  UNL11       0.0485
     38 H          -4.4740   -3.0493   -2.5443 H       1  UNL11       0.0330
     39 H          -3.1619   -2.2909   -3.5086 H       1  UNL11       0.0330
     40 H          -5.4358   -0.7559   -4.3578 H       1  UNL11       0.0621
     41 H          -6.5048    1.3897   -3.8953 H       1  UNL11       0.0618
     42 H          -6.1084    2.4361   -1.7173 H       1  UNL11       0.0618
     43 H          -4.6444    1.3380   -0.0010 H       1  UNL11       0.0637
     44 H          -0.1693   -1.1934    0.5223 H       1  UNL11       0.0645
     45 H           4.8732   -2.3018   -1.9172 H       1  UNL11       0.0625
     46 H           3.0824   -3.0565   -3.5195 H       1  UNL11       0.0618
     47 H           1.0010   -1.7902   -3.7564 H       1  UNL11       0.0618
     48 H           0.6969    0.2803   -2.3622 H       1  UNL11       0.0618
     49 H           2.4218    0.9779   -0.8394 H       1  UNL11       0.0625
@<TRIPOS>BOND
     1     1     2    2
     2     2     3   am
     3     2    25    1
     4     3     4    1
     5     3    31    1
     6     4     5   am
     7     4    32    1
     8     5     6    2
     9     5     7    1
    10     7     8   ar
    11     8     9   ar
    12     8    33    1
    13     9    10   ar
    14     9    34    1
    15    10    11   ar
    16    10    35    1
    17    11    12    1
    18    11    24   ar
    19    12    13    2
    20    12    14    2
    21    12    15    1
    22    15    16    1
    23    16    17    1
    24    16    36    1
    25    16    37    1
    26    17    18    1
    27    17    38    1
    28    17    39    1
    29    18    19   ar
    30    19    20   ar
    31    19    40    1
    32    20    21   ar
    33    20    41    1
    34    21    22   ar
    35    21    42    1
    36    22    23   ar
    37    22    43    1
    38    23    15    1
    39    23    18   ar
    40    24     7   ar
    41    24    44    1
    42    25    26   ar
    43    26    27   ar
    44    26    45    1
    45    27    28   ar
    46    27    46    1
    47    28    29   ar
    48    28    47    1
    49    29    30   ar
    50    29    48    1
    51    30    25   ar
    52    30    49    1
@<TRIPOS>MOLECULE
*****
 49 52 0 0 0
SMALL
GASTEIGER

@<TRIPOS>ATOM
      1 O           1.4750    1.3872    3.3221 O.2     1  UNL11      -0.2687
      2 C           2.3315    2.2968    3.1215 C.2     1  UNL11       0.2601
      3 N           3.2707    2.0715    2.1079 N.am    1  UNL11      -0.2301
      4 N           3.3074    0.9054    1.3171 N.am    1  UNL11      -0.2301
      5 C           2.1449    0.1582    1.0146 C.2     1  UNL11       0.2602
      6 O           2.3325   -0.8838    0.2986 O.2     1  UNL11      -0.2687
      7 C           0.7995    0.4582    1.4294 C.ar    1  UNL11       0.0400
      8 C           0.5929    1.5971    2.2108 C.ar    1  UNL11      -0.0495
      9 C          -0.6616    1.9109    2.6416 C.ar    1  UNL11      -0.0592
     10 C          -1.7467    1.1171    2.3186 C.ar    1  UNL11      -0.0350
     11 C          -1.5881   -0.0296    1.5410 C.ar    1  UNL11       0.1094
     12 S          -2.9718   -0.9978    1.2066 S.O2    1  UNL11       0.0747
     13 O          -3.9470   -0.9989    2.3817 O.2     1  UNL11      -0.1498
     14 O          -2.4895   -2.4452    1.1512 O.2     1  UNL11      -0.1498
     15 N          -3.8214   -0.5875   -0.2122 N.pl3   1  UNL11      -0.2024
     16 C          -4.2573    0.7328   -0.5981 C.3     1  UNL11       0.0390
     17 C          -4.6300    0.6953   -2.0424 C.3     1  UNL11      -0.0083
     18 C          -4.6991   -0.7687   -2.3291 C.ar    1  UNL11      -0.0232
     19 C          -5.1542   -1.3857   -3.4770 C.ar    1  UNL11      -0.0567
     20 C          -5.1557   -2.7565   -3.5941 C.ar    1  UNL11      -0.0614
     21 C          -4.6854   -3.4819   -2.5202 C.ar    1  UNL11      -0.0599
     22 C          -4.2298   -2.8666   -1.3719 C.ar    1  UNL11      -0.0388
     23 C          -4.2266   -1.4839   -1.2498 C.ar    1  UNL11       0.0545
     24 C          -0.3092   -0.3024    1.1314 C.ar    1  UNL11      -0.0229
     25 C           2.2892    3.5130    3.9507 C.ar    1  UNL11       0.0382
     26 C           1.0596    3.9398    4.4515 C.ar    1  UNL11      -0.0496
     27 C           0.9612    5.0701    5.2353 C.ar    1  UNL11      -0.0610
     28 C           2.0949    5.8272    5.5537 C.ar    1  UNL11      -0.0617
     29 C           3.2987    5.4018    5.0581 C.ar    1  UNL11      -0.0610
     30 C           3.3808    4.2562    4.2671 C.ar    1  UNL11      -0.0496
     31 H           3.9945    2.7931    1.9067 H       1  UNL11       0.1731
     32 H           4.2124    0.5532    0.9247 H       1  UNL11       0.1731
     33 H           1.4486    2.2404    2.4774 H       1  UNL11       0.0625
     34 H          -0.8114    2.8077    3.2555 H       1  UNL11       0.0618
     35 H          -2.7343    1.3848    2.6691 H       1  UNL11       0.0637
     36 H          -5.0549    1.0916    0.0794 H       1  UNL11       0.0485
     37 H          -3.4183    1.4786   -0.5005 H       1  UNL11       0.0485
     38 H          -3.8241    1.1573   -2.6874 H       1  UNL11       0.0330
     39 H          -5.5762    1.2137   -2.2959 H       1  UNL11       0.0330
     40 H          -5.5233   -0.8223   -4.3207 H       1  UNL11       0.0621
     41 H          -5.5166   -3.2566   -4.5060 H       1  UNL11       0.0618
     42 H          -4.6854   -4.5608   -2.6076 H       1  UNL11       0.0618
     43 H          -3.8600   -3.4324   -0.5243 H       1  UNL11       0.0637
     44 H          -0.1693   -1.1934    0.5223 H       1  UNL11       0.0645
     45 H           0.1566    3.3638    4.2157 H       1  UNL11       0.0625
     46 H           0.0297    5.4353    5.6430 H       1  UNL11       0.0618
     47 H           2.0471    6.7187    6.1675 H       1  UNL11       0.0618
     48 H           4.2456    5.9182    5.2461 H       1  UNL11       0.0618
     49 H           4.3388    3.9369    3.8872 H       1  UNL11       0.0625
@<TRIPOS>BOND
     1     1     2    2
     2     2     3   am
     3     2    25    1
     4     3     4    1
     5     3    31    1
     6     4     5   am
     7     4    32    1
     8     5     6    2
     9     5     7    1
    10     7     8   ar
    11     8     9   ar
    12     8    33    1
    13     9    10   ar
    14     9    34    1
    15    10    11   ar
    16    10    35    1
    17    11    12    1
    18    11    24   ar
    19    12    13    2
    20    12    14    2
    21    12    15    1
    22    15    16    1
    23    16    17    1
    24    16    36    1
    25    16    37    1
    26    17    18    1
    27    17    38    1
    28    17    39    1
    29    18    19   ar
    30    19    20   ar
    31    19    40    1
    32    20    21   ar
    33    20    41    1
    34    21    22   ar
    35    21    42    1
    36    22    23   ar
    37    22    43    1
    38    23    15    1
    39    23    18   ar
    40    24     7   ar
    41    24    44    1
    42    25    26   ar
    43    26    27   ar
    44    26    45    1
    45    27    28   ar
    46    27    46    1
    47    28    29   ar
    48    28    47    1
    49    29    30   ar
    50    29    48    1
    51    30    25   ar
    52    30    49    1
@<TRIPOS>MOLECULE
*****
 49 52 0 0 0
SMALL
GASTEIGER

@<TRIPOS>ATOM
      1 O           1.4750    1.3872    3.3221 O.2     1  UNL11      -0.2687
      2 C           2.3315    2.2968    3.1215 C.2     1  UNL11       0.2601
      3 N           3.2707    2.0715    2.1079 N.am    1  UNL11      -0.2301
      4 N           3.3074    0.9054    1.3171 N.am    1  UNL11      -0.2301
      5 C           2.1449    0.1582    1.0146 C.2     1  UNL11       0.2602
      6 O           2.3325   -0.8838    0.2986 O.2     1  UNL11      -0.2687
      7 C           0.7995    0.4582    1.4294 C.ar    1  UNL11       0.0400
      8 C           0.5929    1.5971    2.2108 C.ar    1  UNL11      -0.0495
      9 C          -0.6616    1.9109    2.6416 C.ar    1  UNL11      -0.0592
     10 C          -1.7467    1.1171    2.3186 C.ar    1  UNL11      -0.0350
     11 C          -1.5881   -0.0296    1.5410 C.ar    1  UNL11       0.1094
     12 S          -2.9718   -0.9978    1.2066 S.O2    1  UNL11       0.0747
     13 O          -4.0766   -0.1787    0.5431 O.2     1  UNL11      -0.1498
     14 O          -3.5783   -1.3744    2.5560 O.2     1  UNL11      -0.1498
     15 N          -2.6775   -2.3874    0.2656 N.pl3   1  UNL11      -0.2024
     16 C          -2.3410   -3.7009    0.7594 C.3     1  UNL11       0.0390
     17 C          -2.5237   -4.6768   -0.3544 C.3     1  UNL11      -0.0083
     18 C          -2.6442   -3.7937   -1.5527 C.ar    1  UNL11      -0.0232
     19 C          -2.6739   -4.1686   -2.8808 C.ar    1  UNL11      -0.0567
     20 C          -2.7902   -3.2314   -3.8813 C.ar    1  UNL11      -0.0614
     21 C          -2.8751   -1.9092   -3.5004 C.ar    1  UNL11      -0.0599
     22 C          -2.8457   -1.5326   -2.1730 C.ar    1  UNL11      -0.0388
     23 C          -2.7286   -2.4750   -1.1606 C.ar    1  UNL11       0.0545
     24 C          -0.3092   -0.3024    1.1314 C.ar    1  UNL11      -0.0229
     25 C           2.2892    3.5130    3.9507 C.ar    1  UNL11       0.0382
     26 C           2.7252    4.7165    3.3971 C.ar    1  UNL11      -0.0496
     27 C           2.7056    5.8866    4.1266 C.ar    1  UNL11      -0.0610
     28 C           2.2470    5.9038    5.4492 C.ar    1  UNL11      -0.0617
     29 C           1.8207    4.7180    5.9858 C.ar    1  UNL11      -0.0610
     30 C           1.8468    3.5436    5.2342 C.ar    1  UNL11      -0.0496
     31 H           3.9945    2.7931    1.9067 H       1  UNL11       0.1731
     32 H           4.2124    0.5532    0.9247 H       1  UNL11       0.1731
     33 H           1.4486    2.2404    2.4774 H       1  UNL11       0.0625
     34 H          -0.8114    2.8077    3.2555 H       1  UNL11       0.0618
     35 H          -2.7343    1.3848    2.6691 H       1  UNL11       0.0637
     36 H          -1.3328   -3.6976    1.2149 H       1  UNL11       0.0485
     37 H          -3.0444   -4.0144    1.5820 H       1  UNL11       0.0485
     38 H          -3.4829   -5.2637   -0.2340 H       1  UNL11       0.0330
     39 H          -1.7084   -5.4193   -0.4655 H       1  UNL11       0.0330
     40 H          -2.6080   -5.2025   -3.1843 H       1  UNL11       0.0621
     41 H          -2.8149   -3.5219   -4.9429 H       1  UNL11       0.0618
     42 H          -2.9659   -1.1683   -4.2843 H       1  UNL11       0.0618
     43 H          -2.9111   -0.4942   -1.8683 H       1  UNL11       0.0637
     44 H          -0.1693   -1.1934    0.5223 H       1  UNL11       0.0645
     45 H           3.0895    4.7291    2.3628 H       1  UNL11       0.0625
     46 H           3.0338    6.8393    3.7368 H       1  UNL11       0.0618
     47 H           2.2199    6.8080    6.0453 H       1  UNL11       0.0618
     48 H           1.4429    4.6191    7.0086 H       1  UNL11       0.0618
     49 H           1.5056    2.6197    5.6748 H       1  UNL11       0.0625
@<TRIPOS>BOND
     1     1     2    2
     2     2     3   am
     3     2    25    1
     4     3     4    1
     5     3    31    1
     6     4     5   am
     7     4    32    1
     8     5     6    2
     9     5     7    1
    10     7     8   ar
    11     8     9   ar
    12     8    33    1
    13     9    10   ar
    14     9    34    1
    15    10    11   ar
    16    10    35    1
    17    11    12    1
    18    11    24   ar
    19    12    13    2
    20    12    14    2
    21    12    15    1
    22    15    16    1
    23    16    17    1
    24    16    36    1
    25    16    37    1
    26    17    18    1
    27    17    38    1
    28    17    39    1
    29    18    19   ar
    30    19    20   ar
    31    19    40    1
    32    20    21   ar
    33    20    41    1
    34    21    22   ar
    35    21    42    1
    36    22    23   ar
    37    22    43    1
    38    23    15    1
    39    23    18   ar
    40    24     7   ar
    41    24    44    1
    42    25    26   ar
    43    26    27   ar
    44    26    45    1
    45    27    28   ar
    46    27    46    1
    47    28    29   ar
    48    28    47    1
    49    29    30   ar
    50    29    48    1
    51    30    25   ar
    52    30    49    1
@<TRIPOS>MOLECULE
*****
 49 52 0 0 0
SMALL
GASTEIGER

@<TRIPOS>ATOM
      1 O           0.0932    0.6906   -0.6560 O.2     1  UNL11      -0.2687
      2 C           0.3649   -0.3240   -1.3617 C.2     1  UNL11       0.2601
      3 N           1.5992   -0.9439   -1.1327 N.am    1  UNL11      -0.2301
      4 N           2.5337   -0.5019   -0.1746 N.am    1  UNL11      -0.2301
      5 C           2.1449    0.1582    1.0146 C.2     1  UNL11       0.2602
      6 O           3.1019    0.5141    1.7834 O.2     1  UNL11      -0.2687
      7 C           0.7995    0.4582    1.4294 C.ar    1  UNL11       0.0400
      8 C           0.5929    1.5971    2.2108 C.ar    1  UNL11      -0.0495
      9 C          -0.6616    1.9109    2.6416 C.ar    1  UNL11      -0.0592
     10 C          -1.7467    1.1171    2.3186 C.ar    1  UNL11      -0.0350
     11 C          -1.5881   -0.0296    1.5410 C.ar    1  UNL11       0.1094
     12 S          -2.9718   -0.9978    1.2066 S.O2    1  UNL11       0.0747
     13 O          -2.6290   -2.1526    0.2680 O.2     1  UNL11      -0.1498
     14 O          -3.9161   -0.1369    0.3713 O.2     1  UNL11      -0.1498
     15 N          -3.7718   -1.6214    2.5757 N.pl3   1  UNL11      -0.2024
     16 C          -4.1799   -0.8768    3.7424 C.3     1  UNL11       0.0390
     17 C          -5.1430   -1.7149    4.5148 C.3     1  UNL11      -0.0083
     18 C          -4.9760   -3.0650    3.8987 C.ar    1  UNL11      -0.0232
     19 C          -5.5116   -4.2629    4.3272 C.ar    1  UNL11      -0.0567
     20 C          -5.2662   -5.4342    3.6486 C.ar    1  UNL11      -0.0614
     21 C          -4.4662   -5.3585    2.5283 C.ar    1  UNL11      -0.0599
     22 C          -3.9301   -4.1617    2.0984 C.ar    1  UNL11      -0.0388
     23 C          -4.1753   -2.9777    2.7802 C.ar    1  UNL11       0.0545
     24 C          -0.3092   -0.3024    1.1314 C.ar    1  UNL11      -0.0229
     25 C          -0.6145   -0.7815   -2.3616 C.ar    1  UNL11       0.0382
     26 C          -0.3149   -1.9092   -3.1255 C.ar    1  UNL11      -0.0496
     27 C          -1.1958   -2.3836   -4.0744 C.ar    1  UNL11      -0.0610
     28 C          -2.4216   -1.7468   -4.3022 C.ar    1  UNL11      -0.0617
     29 C          -2.7085   -0.6400   -3.5483 C.ar    1  UNL11      -0.0610
     30 C          -1.8066   -0.1735   -2.5924 C.ar    1  UNL11      -0.0496
     31 H           1.8653   -1.7830   -1.6896 H       1  UNL11       0.1731
     32 H           3.5601   -0.6524   -0.3191 H       1  UNL11       0.1731
     33 H           1.4486    2.2404    2.4774 H       1  UNL11       0.0625
     34 H          -0.8114    2.8077    3.2555 H       1  UNL11       0.0618
     35 H          -2.7343    1.3848    2.6691 H       1  UNL11       0.0637
     36 H          -3.2961   -0.5364    4.3142 H       1  UNL11       0.0485
     37 H          -4.7312    0.0612    3.4492 H       1  UNL11       0.0485
     38 H          -6.2081   -1.3692    4.3567 H       1  UNL11       0.0330
     39 H          -4.9741   -1.7339    5.6100 H       1  UNL11       0.0330
     40 H          -6.1387   -4.3275    5.2036 H       1  UNL11       0.0621
     41 H          -5.6896   -6.3937    3.9833 H       1  UNL11       0.0618
     42 H          -4.2698   -6.2778    1.9917 H       1  UNL11       0.0618
     43 H          -3.2996   -4.0969    1.2188 H       1  UNL11       0.0637
     44 H          -0.1693   -1.1934    0.5223 H       1  UNL11       0.0645
     45 H           0.6394   -2.4255   -2.9661 H       1  UNL11       0.0625
     46 H          -1.0034   -3.2525   -4.6869 H       1  UNL11       0.0618
     47 H          -3.1326   -2.0977   -5.0404 H       1  UNL11       0.0618
     48 H          -3.6370   -0.0679   -3.6445 H       1  UNL11       0.0618
     49 H          -2.0518    0.6996   -2.0078 H       1  UNL11       0.0625
@<TRIPOS>BOND
     1     1     2    2
     2     2     3   am
     3     2    25    1
     4     3     4    1
     5     3    31    1
     6     4     5   am
     7     4    32    1
     8     5     6    2
     9     5     7    1
    10     7     8   ar
    11     8     9   ar
    12     8    33    1
    13     9    10   ar
    14     9    34    1
    15    10    11   ar
    16    10    35    1
    17    11    12    1
    18    11    24   ar
    19    12    13    2
    20    12    14    2
    21    12    15    1
    22    15    16    1
    23    16    17    1
    24    16    36    1
    25    16    37    1
    26    17    18    1
    27    17    38    1
    28    17    39    1
    29    18    19   ar
    30    19    20   ar
    31    19    40    1
    32    20    21   ar
    33    20    41    1
    34    21    22   ar
    35    21    42    1
    36    22    23   ar
    37    22    43    1
    38    23    15    1
    39    23    18   ar
    40    24     7   ar
    41    24    44    1
    42    25    26   ar
    43    26    27   ar
    44    26    45    1
    45    27    28   ar
    46    27    46    1
    47    28    29   ar
    48    28    47    1
    49    29    30   ar
    50    29    48    1
    51    30    25   ar
    52    30    49    1
@<TRIPOS>MOLECULE
*****
 49 52 0 0 0
SMALL
GASTEIGER

@<TRIPOS>ATOM
      1 O           1.7719    4.3875    0.9475 O.2     1  UNL11      -0.2687
      2 C           1.7810    3.1342    0.7728 C.2     1  UNL11       0.2601
      3 N           3.0047    2.4777    0.9514 N.am    1  UNL11      -0.2301
      4 N           3.1831    1.0901    0.7804 N.am    1  UNL11      -0.2301
      5 C           2.1449    0.1582    1.0146 C.2     1  UNL11       0.2602
      6 O           2.4559   -1.0680    0.8322 O.2     1  UNL11      -0.2687
      7 C           0.7995    0.4582    1.4294 C.ar    1  UNL11       0.0400
      8 C           0.5929    1.5971    2.2108 C.ar    1  UNL11      -0.0495
      9 C          -0.6616    1.9109    2.6416 C.ar    1  UNL11      -0.0592
     10 C          -1.7467    1.1171    2.3186 C.ar    1  UNL11      -0.0350
     11 C          -1.5881   -0.0296    1.5410 C.ar    1  UNL11       0.1094
     12 S          -2.9718   -0.9978    1.2066 S.O2    1  UNL11       0.0747
     13 O          -2.8988   -1.6083   -0.1912 O.2     1  UNL11      -0.1498
     14 O          -4.1598   -0.0439    1.1098 O.2     1  UNL11      -0.1498
     15 N          -3.2812   -2.2385    2.3326 N.pl3   1  UNL11      -0.2024
     16 C          -2.3295   -3.2047    2.8257 C.3     1  UNL11       0.0390
     17 C          -2.9133   -3.8568    4.0341 C.3     1  UNL11      -0.0083
     18 C          -4.3480   -3.4468    3.9718 C.ar    1  UNL11      -0.0232
     19 C          -5.3906   -3.8925    4.7590 C.ar    1  UNL11      -0.0567
     20 C          -6.6692   -3.4170    4.5809 C.ar    1  UNL11      -0.0614
     21 C          -6.8615   -2.4812    3.5869 C.ar    1  UNL11      -0.0599
     22 C          -5.8202   -2.0343    2.7990 C.ar    1  UNL11      -0.0388
     23 C          -4.5287   -2.5115    2.9756 C.ar    1  UNL11       0.0545
     24 C          -0.3092   -0.3024    1.1314 C.ar    1  UNL11      -0.0229
     25 C           0.5285    2.4561    0.3993 C.ar    1  UNL11       0.0382
     26 C           0.3327    1.1374    0.8091 C.ar    1  UNL11      -0.0496
     27 C          -0.8219    0.4544    0.4900 C.ar    1  UNL11      -0.0610
     28 C          -1.8366    1.0638   -0.2576 C.ar    1  UNL11      -0.0617
     29 C          -1.6369    2.3587   -0.6566 C.ar    1  UNL11      -0.0610
     30 C          -0.4634    3.0353   -0.3251 C.ar    1  UNL11      -0.0496
     31 H           3.8475    3.0248    1.2260 H       1  UNL11       0.1731
     32 H           4.1057    0.7034    0.4700 H       1  UNL11       0.1731
     33 H           1.4486    2.2404    2.4774 H       1  UNL11       0.0625
     34 H          -0.8114    2.8077    3.2555 H       1  UNL11       0.0618
     35 H          -2.7343    1.3848    2.6691 H       1  UNL11       0.0637
     36 H          -2.0304   -3.9009    2.0196 H       1  UNL11       0.0485
     37 H          -1.3787   -2.7000    3.1588 H       1  UNL11       0.0485
     38 H          -2.4561   -3.4473    4.9840 H       1  UNL11       0.0330
     39 H          -2.7972   -4.9583    4.0746 H       1  UNL11       0.0330
     40 H          -5.2452   -4.6249    5.5387 H       1  UNL11       0.0621
     41 H          -7.5062   -3.7669    5.2044 H       1  UNL11       0.0618
     42 H          -7.8661   -2.1049    3.4426 H       1  UNL11       0.0618
     43 H          -5.9662   -1.2995    2.0155 H       1  UNL11       0.0637
     44 H          -0.1693   -1.1934    0.5223 H       1  UNL11       0.0645
     45 H           1.1131    0.6378    1.3956 H       1  UNL11       0.0625
     46 H          -1.0137   -0.5665    0.7870 H       1  UNL11       0.0618
     47 H          -2.7538    0.5516   -0.5222 H       1  UNL11       0.0618
     48 H          -2.3645    2.9289   -1.2434 H       1  UNL11       0.0618
     49 H          -0.3256    4.0556   -0.6479 H       1  UNL11       0.0625
@<TRIPOS>BOND
     1     1     2    2
     2     2     3   am
     3     2    25    1
     4     3     4    1
     5     3    31    1
     6     4     5   am
     7     4    32    1
     8     5     6    2
     9     5     7    1
    10     7     8   ar
    11     8     9   ar
    12     8    33    1
    13     9    10   ar
    14     9    34    1
    15    10    11   ar
    16    10    35    1
    17    11    12    1
    18    11    24   ar
    19    12    13    2
    20    12    14    2
    21    12    15    1
    22    15    16    1
    23    16    17    1
    24    16    36    1
    25    16    37    1
    26    17    18    1
    27    17    38    1
    28    17    39    1
    29    18    19   ar
    30    19    20   ar
    31    19    40    1
    32    20    21   ar
    33    20    41    1
    34    21    22   ar
    35    21    42    1
    36    22    23   ar
    37    22    43    1
    38    23    15    1
    39    23    18   ar
    40    24     7   ar
    41    24    44    1
    42    25    26   ar
    43    26    27   ar
    44    26    45    1
    45    27    28   ar
    46    27    46    1
    47    28    29   ar
    48    28    47    1
    49    29    30   ar
    50    29    48    1
    51    30    25   ar
    52    30    49    1
@<TRIPOS>MOLECULE
*****
 49 52 0 0 0
SMALL
GASTEIGER

@<TRIPOS>ATOM
      1 O           3.0241   -0.6770   -2.8836 O.2     1  UNL11      -0.2687
      2 C           1.8682   -1.0255   -2.5043 C.2     1  UNL11       0.2601
      3 N           1.5992   -0.9439   -1.1327 N.am    1  UNL11      -0.2301
      4 N           2.5337   -0.5019   -0.1746 N.am    1  UNL11      -0.2301
      5 C           2.1449    0.1582    1.0146 C.2     1  UNL11       0.2602
      6 O           3.1019    0.5141    1.7834 O.2     1  UNL11      -0.2687
      7 C           0.7995    0.4582    1.4294 C.ar    1  UNL11       0.0400
      8 C           0.5929    1.5971    2.2108 C.ar    1  UNL11      -0.0495
      9 C          -0.6616    1.9109    2.6416 C.ar    1  UNL11      -0.0592
     10 C          -1.7467    1.1171    2.3186 C.ar    1  UNL11      -0.0350
     11 C          -1.5881   -0.0296    1.5410 C.ar    1  UNL11       0.1094
     12 S          -2.9718   -0.9978    1.2066 S.O2    1  UNL11       0.0747
     13 O          -3.2971   -1.0066   -0.2854 O.2     1  UNL11      -0.1498
     14 O          -4.1688   -0.2766    1.8211 O.2     1  UNL11      -0.1498
     15 N          -2.8848   -2.6071    1.7595 N.pl3   1  UNL11      -0.2024
     16 C          -2.0454   -3.6522    1.2253 C.3     1  UNL11       0.0390
     17 C          -2.0153   -4.7728    2.2100 C.3     1  UNL11      -0.0083
     18 C          -3.1371   -4.4318    3.1349 C.ar    1  UNL11      -0.0232
     19 C          -3.6643   -5.2071    4.1480 C.ar    1  UNL11      -0.0567
     20 C          -4.7065   -4.7520    4.9223 C.ar    1  UNL11      -0.0614
     21 C          -5.1979   -3.4946    4.6427 C.ar    1  UNL11      -0.0599
     22 C          -4.6719   -2.7180    3.6302 C.ar    1  UNL11      -0.0388
     23 C          -3.6204   -3.1735    2.8469 C.ar    1  UNL11       0.0545
     24 C          -0.3092   -0.3024    1.1314 C.ar    1  UNL11      -0.0229
     25 C           0.8958   -1.4870   -3.5091 C.ar    1  UNL11       0.0382
     26 C           0.9794   -0.9787   -4.8051 C.ar    1  UNL11      -0.0496
     27 C           0.0968   -1.3772   -5.7868 C.ar    1  UNL11      -0.0610
     28 C          -0.9140   -2.3064   -5.5133 C.ar    1  UNL11      -0.0617
     29 C          -0.9898   -2.8008   -4.2383 C.ar    1  UNL11      -0.0610
     30 C          -0.0890   -2.3875   -3.2572 C.ar    1  UNL11      -0.0496
     31 H           0.6607   -1.2197   -0.7746 H       1  UNL11       0.1731
     32 H           3.5601   -0.6524   -0.3191 H       1  UNL11       0.1731
     33 H           1.4486    2.2404    2.4774 H       1  UNL11       0.0625
     34 H          -0.8114    2.8077    3.2555 H       1  UNL11       0.0618
     35 H          -2.7343    1.3848    2.6691 H       1  UNL11       0.0637
     36 H          -2.3774   -3.9347    0.2084 H       1  UNL11       0.0485
     37 H          -0.9828   -3.2957    1.1092 H       1  UNL11       0.0485
     38 H          -1.0475   -4.7804    2.7951 H       1  UNL11       0.0330
     39 H          -2.1302   -5.7845    1.7724 H       1  UNL11       0.0330
     40 H          -3.2829   -6.1921    4.3711 H       1  UNL11       0.0621
     41 H          -5.1325   -5.3637    5.7323 H       1  UNL11       0.0618
     42 H          -6.0184   -3.1328    5.2488 H       1  UNL11       0.0618
     43 H          -5.0554   -1.7292    3.4056 H       1  UNL11       0.0637
     44 H          -0.1693   -1.1934    0.5223 H       1  UNL11       0.0645
     45 H           1.7624   -0.2491   -5.0443 H       1  UNL11       0.0625
     46 H           0.1262   -1.0089   -6.8021 H       1  UNL11       0.0618
     47 H          -1.6204   -2.6377   -6.2648 H       1  UNL11       0.0618
     48 H          -1.7398   -3.5310   -3.9174 H       1  UNL11       0.0618
     49 H          -0.1647   -2.7897   -2.2589 H       1  UNL11       0.0625
@<TRIPOS>BOND
     1     1     2    2
     2     2     3   am
     3     2    25    1
     4     3     4    1
     5     3    31    1
     6     4     5   am
     7     4    32    1
     8     5     6    2
     9     5     7    1
    10     7     8   ar
    11     8     9   ar
    12     8    33    1
    13     9    10   ar
    14     9    34    1
    15    10    11   ar
    16    10    35    1
    17    11    12    1
    18    11    24   ar
    19    12    13    2
    20    12    14    2
    21    12    15    1
    22    15    16    1
    23    16    17    1
    24    16    36    1
    25    16    37    1
    26    17    18    1
    27    17    38    1
    28    17    39    1
    29    18    19   ar
    30    19    20   ar
    31    19    40    1
    32    20    21   ar
    33    20    41    1
    34    21    22   ar
    35    21    42    1
    36    22    23   ar
    37    22    43    1
    38    23    15    1
    39    23    18   ar
    40    24     7   ar
    41    24    44    1
    42    25    26   ar
    43    26    27   ar
    44    26    45    1
    45    27    28   ar
    46    27    46    1
    47    28    29   ar
    48    28    47    1
    49    29    30   ar
    50    29    48    1
    51    30    25   ar
    52    30    49    1
@<TRIPOS>MOLECULE
*****
 49 52 0 0 0
SMALL
GASTEIGER

@<TRIPOS>ATOM
      1 O           5.6116   -1.0601   -1.9372 O.2     1  UNL11      -0.2687
      2 C           4.3778   -0.8141   -1.8012 C.2     1  UNL11       0.2601
      3 N           3.8839   -0.7515   -0.4926 N.am    1  UNL11      -0.2301
      4 N           2.5337   -0.5019   -0.1746 N.am    1  UNL11      -0.2301
      5 C           2.1449    0.1582    1.0146 C.2     1  UNL11       0.2602
      6 O           3.1019    0.5141    1.7834 O.2     1  UNL11      -0.2687
      7 C           0.7995    0.4582    1.4294 C.ar    1  UNL11       0.0400
      8 C           0.5929    1.5971    2.2108 C.ar    1  UNL11      -0.0495
      9 C          -0.6616    1.9109    2.6416 C.ar    1  UNL11      -0.0592
     10 C          -1.7467    1.1171    2.3186 C.ar    1  UNL11      -0.0350
     11 C          -1.5881   -0.0296    1.5410 C.ar    1  UNL11       0.1094
     12 S          -2.9718   -0.9978    1.2066 S.O2    1  UNL11       0.0747
     13 O          -4.0766   -0.1787    0.5431 O.2     1  UNL11      -0.1498
     14 O          -3.5783   -1.3744    2.5560 O.2     1  UNL11      -0.1498
     15 N          -2.6775   -2.3874    0.2656 N.pl3   1  UNL11      -0.2024
     16 C          -2.3393   -2.4163   -1.1369 C.3     1  UNL11       0.0390
     17 C          -1.8237   -3.7782   -1.4624 C.3     1  UNL11      -0.0083
     18 C          -2.2149   -4.5764   -0.2625 C.ar    1  UNL11      -0.0232
     19 C          -2.1254   -5.9430   -0.0890 C.ar    1  UNL11      -0.0567
     20 C          -2.5289   -6.5384    1.0838 C.ar    1  UNL11      -0.0614
     21 C          -3.0235   -5.7142    2.0720 C.ar    1  UNL11      -0.0599
     22 C          -3.1135   -4.3477    1.9004 C.ar    1  UNL11      -0.0388
     23 C          -2.7075   -3.7431    0.7188 C.ar    1  UNL11       0.0545
     24 C          -0.3092   -0.3024    1.1314 C.ar    1  UNL11      -0.0229
     25 C           3.5529   -0.6132   -3.0042 C.ar    1  UNL11       0.0382
     26 C           4.1614   -0.7010   -4.2561 C.ar    1  UNL11      -0.0496
     27 C           3.4372   -0.5242   -5.4162 C.ar    1  UNL11      -0.0610
     28 C           2.0650   -0.2497   -5.3744 C.ar    1  UNL11      -0.0617
     29 C           1.4747   -0.1647   -4.1415 C.ar    1  UNL11      -0.0610
     30 C           2.2216   -0.3466   -2.9779 C.ar    1  UNL11      -0.0496
     31 H           4.5321   -0.8951    0.3100 H       1  UNL11       0.1731
     32 H           1.7670   -0.8038   -0.8212 H       1  UNL11       0.1731
     33 H           1.4486    2.2404    2.4774 H       1  UNL11       0.0625
     34 H          -0.8114    2.8077    3.2555 H       1  UNL11       0.0618
     35 H          -2.7343    1.3848    2.6691 H       1  UNL11       0.0637
     36 H          -3.1984   -2.0849   -1.7501 H       1  UNL11       0.0485
     37 H          -1.5064   -1.6926   -1.3656 H       1  UNL11       0.0485
     38 H          -0.6964   -3.7806   -1.5526 H       1  UNL11       0.0330
     39 H          -2.2186   -4.2170   -2.4004 H       1  UNL11       0.0330
     40 H          -1.7386   -6.5926   -0.8596 H       1  UNL11       0.0621
     41 H          -2.4607   -7.6273    1.2304 H       1  UNL11       0.0618
     42 H          -3.3429   -6.1784    2.9962 H       1  UNL11       0.0618
     43 H          -3.5028   -3.6954    2.6739 H       1  UNL11       0.0637
     44 H          -0.1693   -1.1934    0.5223 H       1  UNL11       0.0645
     45 H           5.2354   -0.9147   -4.3152 H       1  UNL11       0.0625
     46 H           3.8686   -0.5837   -6.4048 H       1  UNL11       0.0618
     47 H           1.4714   -0.1068   -6.2693 H       1  UNL11       0.0618
     48 H           0.4100    0.0446   -3.9948 H       1  UNL11       0.0618
     49 H           1.7376   -0.2768   -2.0161 H       1  UNL11       0.0625
@<TRIPOS>BOND
     1     1     2    2
     2     2     3   am
     3     2    25    1
     4     3     4    1
     5     3    31    1
     6     4     5   am
     7     4    32    1
     8     5     6    2
     9     5     7    1
    10     7     8   ar
    11     8     9   ar
    12     8    33    1
    13     9    10   ar
    14     9    34    1
    15    10    11   ar
    16    10    35    1
    17    11    12    1
    18    11    24   ar
    19    12    13    2
    20    12    14    2
    21    12    15    1
    22    15    16    1
    23    16    17    1
    24    16    36    1
    25    16    37    1
    26    17    18    1
    27    17    38    1
    28    17    39    1
    29    18    19   ar
    30    19    20   ar
    31    19    40    1
    32    20    21   ar
    33    20    41    1
    34    21    22   ar
    35    21    42    1
    36    22    23   ar
    37    22    43    1
    38    23    15    1
    39    23    18   ar
    40    24     7   ar
    41    24    44    1
    42    25    26   ar
    43    26    27   ar
    44    26    45    1
    45    27    28   ar
    46    27    46    1
    47    28    29   ar
    48    28    47    1
    49    29    30   ar
    50    29    48    1
    51    30    25   ar
    52    30    49    1
@<TRIPOS>MOLECULE
*****
 49 52 0 0 0
SMALL
GASTEIGER

@<TRIPOS>ATOM
      1 O           6.0170   -0.4538   -0.6071 O.2     1  UNL11      -0.2687
      2 C           4.8153   -0.1700   -0.3303 C.2     1  UNL11       0.2601
      3 N           4.5867    0.5286    0.8613 N.am    1  UNL11      -0.2301
      4 N           3.3074    0.9054    1.3171 N.am    1  UNL11      -0.2301
      5 C           2.1449    0.1582    1.0146 C.2     1  UNL11       0.2602
      6 O           2.3325   -0.8838    0.2986 O.2     1  UNL11      -0.2687
      7 C           0.7995    0.4582    1.4294 C.ar    1  UNL11       0.0400
      8 C           0.5929    1.5971    2.2108 C.ar    1  UNL11      -0.0495
      9 C          -0.6616    1.9109    2.6416 C.ar    1  UNL11      -0.0592
     10 C          -1.7467    1.1171    2.3186 C.ar    1  UNL11      -0.0350
     11 C          -1.5881   -0.0296    1.5410 C.ar    1  UNL11       0.1094
     12 S          -2.9718   -0.9978    1.2066 S.O2    1  UNL11       0.0747
     13 O          -3.2971   -1.0066   -0.2854 O.2     1  UNL11      -0.1498
     14 O          -4.1688   -0.2766    1.8211 O.2     1  UNL11      -0.1498
     15 N          -2.8848   -2.6071    1.7595 N.pl3   1  UNL11      -0.2024
     16 C          -2.0454   -3.6522    1.2253 C.3     1  UNL11       0.0390
     17 C          -2.0153   -4.7728    2.2100 C.3     1  UNL11      -0.0083
     18 C          -3.1371   -4.4318    3.1349 C.ar    1  UNL11      -0.0232
     19 C          -3.6643   -5.2071    4.1480 C.ar    1  UNL11      -0.0567
     20 C          -4.7065   -4.7520    4.9223 C.ar    1  UNL11      -0.0614
     21 C          -5.1979   -3.4946    4.6427 C.ar    1  UNL11      -0.0599
     22 C          -4.6719   -2.7180    3.6302 C.ar    1  UNL11      -0.0388
     23 C          -3.6204   -3.1735    2.8469 C.ar    1  UNL11       0.0545
     24 C          -0.3092   -0.3024    1.1314 C.ar    1  UNL11      -0.0229
     25 C           3.7513   -0.5842   -1.2601 C.ar    1  UNL11       0.0382
     26 C           2.4305   -0.2550   -0.9562 C.ar    1  UNL11      -0.0496
     27 C           1.3943   -0.6151   -1.7918 C.ar    1  UNL11      -0.0610
     28 C           1.6354   -1.3247   -2.9744 C.ar    1  UNL11      -0.0617
     29 C           2.9349   -1.6444   -3.2658 C.ar    1  UNL11      -0.0610
     30 C           3.9712   -1.2723   -2.4100 C.ar    1  UNL11      -0.0496
     31 H           5.3930    0.7964    1.4641 H       1  UNL11       0.1731
     32 H           3.1794    1.7643    1.9027 H       1  UNL11       0.1731
     33 H           1.4486    2.2404    2.4774 H       1  UNL11       0.0625
     34 H          -0.8114    2.8077    3.2555 H       1  UNL11       0.0618
     35 H          -2.7343    1.3848    2.6691 H       1  UNL11       0.0637
     36 H          -2.3774   -3.9347    0.2084 H       1  UNL11       0.0485
     37 H          -0.9828   -3.2957    1.1092 H       1  UNL11       0.0485
     38 H          -1.0475   -4.7804    2.7951 H       1  UNL11       0.0330
     39 H          -2.1302   -5.7845    1.7724 H       1  UNL11       0.0330
     40 H          -3.2829   -6.1921    4.3711 H       1  UNL11       0.0621
     41 H          -5.1325   -5.3637    5.7323 H       1  UNL11       0.0618
     42 H          -6.0184   -3.1328    5.2488 H       1  UNL11       0.0618
     43 H          -5.0554   -1.7292    3.4056 H       1  UNL11       0.0637
     44 H          -0.1693   -1.1934    0.5223 H       1  UNL11       0.0645
     45 H           2.2157    0.3003   -0.0352 H       1  UNL11       0.0625
     46 H           0.3584   -0.3805   -1.5944 H       1  UNL11       0.0618
     47 H           0.8412   -1.6199   -3.6494 H       1  UNL11       0.0618
     48 H           3.2345   -2.1957   -4.1630 H       1  UNL11       0.0618
     49 H           4.9884   -1.5327   -2.6581 H       1  UNL11       0.0625
@<TRIPOS>BOND
     1     1     2    2
     2     2     3   am
     3     2    25    1
     4     3     4    1
     5     3    31    1
     6     4     5   am
     7     4    32    1
     8     5     6    2
     9     5     7    1
    10     7     8   ar
    11     8     9   ar
    12     8    33    1
    13     9    10   ar
    14     9    34    1
    15    10    11   ar
    16    10    35    1
    17    11    12    1
    18    11    24   ar
    19    12    13    2
    20    12    14    2
    21    12    15    1
    22    15    16    1
    23    16    17    1
    24    16    36    1
    25    16    37    1
    26    17    18    1
    27    17    38    1
    28    17    39    1
    29    18    19   ar
    30    19    20   ar
    31    19    40    1
    32    20    21   ar
    33    20    41    1
    34    21    22   ar
    35    21    42    1
    36    22    23   ar
    37    22    43    1
    38    23    15    1
    39    23    18   ar
    40    24     7   ar
    41    24    44    1
    42    25    26   ar
    43    26    27   ar
    44    26    45    1
    45    27    28   ar
    46    27    46    1
    47    28    29   ar
    48    28    47    1
    49    29    30   ar
    50    29    48    1
    51    30    25   ar
    52    30    49    1
@<TRIPOS>MOLECULE
*****
 49 52 0 0 0
SMALL
GASTEIGER

@<TRIPOS>ATOM
      1 O           5.9386   -0.7021   -0.6877 O.2     1  UNL11      -0.2687
      2 C           4.7501   -0.3903   -0.3851 C.2     1  UNL11       0.2601
      3 N           4.0240   -1.3179    0.3716 N.am    1  UNL11      -0.2301
      4 N           2.6875   -1.1262    0.7760 N.am    1  UNL11      -0.2301
      5 C           2.1449    0.1582    1.0146 C.2     1  UNL11       0.2602
      6 O           2.9493    1.1357    0.8386 O.2     1  UNL11      -0.2687
      7 C           0.7995    0.4582    1.4294 C.ar    1  UNL11       0.0400
      8 C           0.5929    1.5971    2.2108 C.ar    1  UNL11      -0.0495
      9 C          -0.6616    1.9109    2.6416 C.ar    1  UNL11      -0.0592
     10 C          -1.7467    1.1171    2.3186 C.ar    1  UNL11      -0.0350
     11 C          -1.5881   -0.0296    1.5410 C.ar    1  UNL11       0.1094
     12 S          -2.9718   -0.9978    1.2066 S.O2    1  UNL11       0.0747
     13 O          -3.9470   -0.9989    2.3817 O.2     1  UNL11      -0.1498
     14 O          -2.4895   -2.4452    1.1512 O.2     1  UNL11      -0.1498
     15 N          -3.8214   -0.5875   -0.2122 N.pl3   1  UNL11      -0.2024
     16 C          -3.2526   -0.3837   -1.5226 C.3     1  UNL11       0.0390
     17 C          -4.3633   -0.3998   -2.5188 C.3     1  UNL11      -0.0083
     18 C          -5.5799   -0.2817   -1.6609 C.ar    1  UNL11      -0.0232
     19 C          -6.8858   -0.0910   -2.0657 C.ar    1  UNL11      -0.0567
     20 C          -7.9080   -0.0015   -1.1493 C.ar    1  UNL11      -0.0614
     21 C          -7.5719   -0.1101    0.1833 C.ar    1  UNL11      -0.0599
     22 C          -6.2669   -0.3010    0.5898 C.ar    1  UNL11      -0.0388
     23 C          -5.2327   -0.3918   -0.3315 C.ar    1  UNL11       0.0545
     24 C          -0.3092   -0.3024    1.1314 C.ar    1  UNL11      -0.0229
     25 C           4.2137    0.9037   -0.8391 C.ar    1  UNL11       0.0382
     26 C           2.9080    1.2473   -0.4893 C.ar    1  UNL11      -0.0496
     27 C           2.3550    2.4471   -0.8847 C.ar    1  UNL11      -0.0610
     28 C           3.0879    3.3604   -1.6520 C.ar    1  UNL11      -0.0617
     29 C           4.3692    3.0157   -1.9916 C.ar    1  UNL11      -0.0610
     30 C           4.9135    1.7985   -1.5832 C.ar    1  UNL11      -0.0496
     31 H           4.4755   -2.2097    0.6646 H       1  UNL11       0.1731
     32 H           2.0477   -1.9439    0.9138 H       1  UNL11       0.1731
     33 H           1.4486    2.2404    2.4774 H       1  UNL11       0.0625
     34 H          -0.8114    2.8077    3.2555 H       1  UNL11       0.0618
     35 H          -2.7343    1.3848    2.6691 H       1  UNL11       0.0637
     36 H          -2.6278    0.5292   -1.5366 H       1  UNL11       0.0485
     37 H          -2.5603   -1.2293   -1.7973 H       1  UNL11       0.0485
     38 H          -4.4020   -1.3832   -3.0760 H       1  UNL11       0.0330
     39 H          -4.3165    0.3987   -3.2860 H       1  UNL11       0.0330
     40 H          -7.1542   -0.0056   -3.1079 H       1  UNL11       0.0621
     41 H          -8.9521    0.1502   -1.4637 H       1  UNL11       0.0618
     42 H          -8.3729   -0.0395    0.9079 H       1  UNL11       0.0618
     43 H          -5.9972   -0.3859    1.6364 H       1  UNL11       0.0637
     44 H          -0.1693   -1.1934    0.5223 H       1  UNL11       0.0645
     45 H           2.3132    0.5484    0.1110 H       1  UNL11       0.0625
     46 H           1.3489    2.7521   -0.6360 H       1  UNL11       0.0618
     47 H           2.6792    4.3099   -1.9760 H       1  UNL11       0.0618
     48 H           5.0288    3.6551   -2.5873 H       1  UNL11       0.0618
     49 H           5.9252    1.5460   -1.8601 H       1  UNL11       0.0625
@<TRIPOS>BOND
     1     1     2    2
     2     2     3   am
     3     2    25    1
     4     3     4    1
     5     3    31    1
     6     4     5   am
     7     4    32    1
     8     5     6    2
     9     5     7    1
    10     7     8   ar
    11     8     9   ar
    12     8    33    1
    13     9    10   ar
    14     9    34    1
    15    10    11   ar
    16    10    35    1
    17    11    12    1
    18    11    24   ar
    19    12    13    2
    20    12    14    2
    21    12    15    1
    22    15    16    1
    23    16    17    1
    24    16    36    1
    25    16    37    1
    26    17    18    1
    27    17    38    1
    28    17    39    1
    29    18    19   ar
    30    19    20   ar
    31    19    40    1
    32    20    21   ar
    33    20    41    1
    34    21    22   ar
    35    21    42    1
    36    22    23   ar
    37    22    43    1
    38    23    15    1
    39    23    18   ar
    40    24     7   ar
    41    24    44    1
    42    25    26   ar
    43    26    27   ar
    44    26    45    1
    45    27    28   ar
    46    27    46    1
    47    28    29   ar
    48    28    47    1
    49    29    30   ar
    50    29    48    1
    51    30    25   ar
    52    30    49    1
@<TRIPOS>MOLECULE
*****
 49 52 0 0 0
SMALL
GASTEIGER

@<TRIPOS>ATOM
      1 O           3.0879   -3.4325   -0.6836 O.2     1  UNL11      -0.2687
      2 C           2.1457   -3.4654    0.1605 C.2     1  UNL11       0.2601
      3 N           1.9261   -2.3045    0.9117 N.am    1  UNL11      -0.2301
      4 N           2.6875   -1.1262    0.7760 N.am    1  UNL11      -0.2301
      5 C           2.1449    0.1582    1.0146 C.2     1  UNL11       0.2602
      6 O           2.9493    1.1357    0.8386 O.2     1  UNL11      -0.2687
      7 C           0.7995    0.4582    1.4294 C.ar    1  UNL11       0.0400
      8 C           0.5929    1.5971    2.2108 C.ar    1  UNL11      -0.0495
      9 C          -0.6616    1.9109    2.6416 C.ar    1  UNL11      -0.0592
     10 C          -1.7467    1.1171    2.3186 C.ar    1  UNL11      -0.0350
     11 C          -1.5881   -0.0296    1.5410 C.ar    1  UNL11       0.1094
     12 S          -2.9718   -0.9978    1.2066 S.O2    1  UNL11       0.0747
     13 O          -3.2971   -1.0066   -0.2854 O.2     1  UNL11      -0.1498
     14 O          -4.1688   -0.2766    1.8211 O.2     1  UNL11      -0.1498
     15 N          -2.8848   -2.6071    1.7595 N.pl3   1  UNL11      -0.2024
     16 C          -3.3176   -3.0952    3.0467 C.3     1  UNL11       0.0390
     17 C          -3.3940   -4.5837    2.9773 C.3     1  UNL11      -0.0083
     18 C          -2.6629   -4.8947    1.7128 C.ar    1  UNL11      -0.0232
     19 C          -2.2922   -6.1346    1.2324 C.ar    1  UNL11      -0.0567
     20 C          -1.6172   -6.2622    0.0405 C.ar    1  UNL11      -0.0614
     21 C          -1.3292   -5.1035   -0.6486 C.ar    1  UNL11      -0.0599
     22 C          -1.6992   -3.8629   -0.1700 C.ar    1  UNL11      -0.0388
     23 C          -2.3804   -3.7299    1.0321 C.ar    1  UNL11       0.0545
     24 C          -0.3092   -0.3024    1.1314 C.ar    1  UNL11      -0.0229
     25 C           1.3535   -4.6989    0.2988 C.ar    1  UNL11       0.0382
     26 C           0.0161   -4.5968    0.6809 C.ar    1  UNL11      -0.0496
     27 C          -0.7735   -5.7183    0.8235 C.ar    1  UNL11      -0.0610
     28 C          -0.2566   -6.9982    0.5893 C.ar    1  UNL11      -0.0617
     29 C           1.0575   -7.0903    0.2146 C.ar    1  UNL11      -0.0610
     30 C           1.8422   -5.9460    0.0746 C.ar    1  UNL11      -0.0496
     31 H           1.1608   -2.2852    1.6181 H       1  UNL11       0.1731
     32 H           3.6940   -1.1695    0.4895 H       1  UNL11       0.1731
     33 H           1.4486    2.2404    2.4774 H       1  UNL11       0.0625
     34 H          -0.8114    2.8077    3.2555 H       1  UNL11       0.0618
     35 H          -2.7343    1.3848    2.6691 H       1  UNL11       0.0637
     36 H          -2.6682   -2.6993    3.8501 H       1  UNL11       0.0485
     37 H          -4.3557   -2.7295    3.2880 H       1  UNL11       0.0485
     38 H          -4.4639   -4.9366    2.8782 H       1  UNL11       0.0330
     39 H          -2.9630   -5.1163    3.8484 H       1  UNL11       0.0330
     40 H          -2.5156   -7.0450    1.7680 H       1  UNL11       0.0621
     41 H          -1.3182   -7.2472   -0.3499 H       1  UNL11       0.0618
     42 H          -0.7975   -5.1990   -1.5866 H       1  UNL11       0.0618
     43 H          -1.4742   -2.9487   -0.7074 H       1  UNL11       0.0637
     44 H          -0.1693   -1.1934    0.5223 H       1  UNL11       0.0645
     45 H          -0.4120   -3.6052    0.8706 H       1  UNL11       0.0625
     46 H          -1.8126   -5.6841    1.1172 H       1  UNL11       0.0618
     47 H          -0.8538   -7.8961    0.6930 H       1  UNL11       0.0618
     48 H           1.5610   -8.0400    0.0066 H       1  UNL11       0.0618
     49 H           2.8751   -6.0397   -0.2226 H       1  UNL11       0.0625
@<TRIPOS>BOND
     1     1     2    2
     2     2     3   am
     3     2    25    1
     4     3     4    1
     5     3    31    1
     6     4     5   am
     7     4    32    1
     8     5     6    2
     9     5     7    1
    10     7     8   ar
    11     8     9   ar
    12     8    33    1
    13     9    10   ar
    14     9    34    1
    15    10    11   ar
    16    10    35    1
    17    11    12    1
    18    11    24   ar
    19    12    13    2
    20    12    14    2
    21    12    15    1
    22    15    16    1
    23    16    17    1
    24    16    36    1
    25    16    37    1
    26    17    18    1
    27    17    38    1
    28    17    39    1
    29    18    19   ar
    30    19    20   ar
    31    19    40    1
    32    20    21   ar
    33    20    41    1
    34    21    22   ar
    35    21    42    1
    36    22    23   ar
    37    22    43    1
    38    23    15    1
    39    23    18   ar
    40    24     7   ar
    41    24    44    1
    42    25    26   ar
    43    26    27   ar
    44    26    45    1
    45    27    28   ar
    46    27    46    1
    47    28    29   ar
    48    28    47    1
    49    29    30   ar
    50    29    48    1
    51    30    25   ar
    52    30    49    1
@<TRIPOS>MOLECULE
*****
 49 52 0 0 0
SMALL
GASTEIGER

@<TRIPOS>ATOM
      1 O           1.4750    1.3872    3.3221 O.2     1  UNL11      -0.2687
      2 C           2.3315    2.2968    3.1215 C.2     1  UNL11       0.2601
      3 N           3.2707    2.0715    2.1079 N.am    1  UNL11      -0.2301
      4 N           3.3074    0.9054    1.3171 N.am    1  UNL11      -0.2301
      5 C           2.1449    0.1582    1.0146 C.2     1  UNL11       0.2602
      6 O           2.3325   -0.8838    0.2986 O.2     1  UNL11      -0.2687
      7 C           0.7995    0.4582    1.4294 C.ar    1  UNL11       0.0400
      8 C           0.5929    1.5971    2.2108 C.ar    1  UNL11      -0.0495
      9 C          -0.6616    1.9109    2.6416 C.ar    1  UNL11      -0.0592
     10 C          -1.7467    1.1171    2.3186 C.ar    1  UNL11      -0.0350
     11 C          -1.5881   -0.0296    1.5410 C.ar    1  UNL11       0.1094
     12 S          -2.9718   -0.9978    1.2066 S.O2    1  UNL11       0.0747
     13 O          -4.0766   -0.1787    0.5431 O.2     1  UNL11      -0.1498
     14 O          -3.5783   -1.3744    2.5560 O.2     1  UNL11      -0.1498
     15 N          -2.6775   -2.3874    0.2656 N.pl3   1  UNL11      -0.2024
     16 C          -2.7319   -2.4746   -1.1738 C.3     1  UNL11       0.0390
     17 C          -2.0681   -3.7451   -1.5876 C.3     1  UNL11      -0.0083
     18 C          -1.9570   -4.4955   -0.3012 C.ar    1  UNL11      -0.0232
     19 C          -1.5593   -5.8044   -0.1165 C.ar    1  UNL11      -0.0567
     20 C          -1.5066   -6.3604    1.1408 C.ar    1  UNL11      -0.0614
     21 C          -1.8668   -5.5569    2.2015 C.ar    1  UNL11      -0.0599
     22 C          -2.2646   -4.2480    2.0187 C.ar    1  UNL11      -0.0388
     23 C          -2.3189   -3.6833    0.7519 C.ar    1  UNL11       0.0545
     24 C          -0.3092   -0.3024    1.1314 C.ar    1  UNL11      -0.0229
     25 C           2.2892    3.5130    3.9507 C.ar    1  UNL11       0.0382
     26 C           1.8009    3.4187    5.2536 C.ar    1  UNL11      -0.0496
     27 C           1.7406    4.5243    6.0755 C.ar    1  UNL11      -0.0610
     28 C           2.1683    5.7798    5.6271 C.ar    1  UNL11      -0.0617
     29 C           2.6463    5.8644    4.3464 C.ar    1  UNL11      -0.0610
     30 C           2.7008    4.7362    3.5284 C.ar    1  UNL11      -0.0496
     31 H           3.9945    2.7931    1.9067 H       1  UNL11       0.1731
     32 H           4.2124    0.5532    0.9247 H       1  UNL11       0.1731
     33 H           1.4486    2.2404    2.4774 H       1  UNL11       0.0625
     34 H          -0.8114    2.8077    3.2555 H       1  UNL11       0.0618
     35 H          -2.7343    1.3848    2.6691 H       1  UNL11       0.0637
     36 H          -3.7723   -2.3551   -1.5306 H       1  UNL11       0.0485
     37 H          -2.1496   -1.6359   -1.6505 H       1  UNL11       0.0485
     38 H          -1.0291   -3.5540   -1.9912 H       1  UNL11       0.0330
     39 H          -2.6083   -4.3255   -2.3621 H       1  UNL11       0.0330
     40 H          -1.2760   -6.4377   -0.9437 H       1  UNL11       0.0621
     41 H          -1.1903   -7.4033    1.2969 H       1  UNL11       0.0618
     42 H          -1.8277   -5.9905    3.1925 H       1  UNL11       0.0618
     43 H          -2.5498   -3.6123    2.8492 H       1  UNL11       0.0637
     44 H          -0.1693   -1.1934    0.5223 H       1  UNL11       0.0645
     45 H           1.4594    2.4461    5.6281 H       1  UNL11       0.0625
     46 H           1.3699    4.4954    7.0898 H       1  UNL11       0.0618
     47 H           2.1329    6.6648    6.2509 H       1  UNL11       0.0618
     48 H           3.0062    6.7953    3.8965 H       1  UNL11       0.0618
     49 H           3.0819    4.8235    2.5228 H       1  UNL11       0.0625
@<TRIPOS>BOND
     1     1     2    2
     2     2     3   am
     3     2    25    1
     4     3     4    1
     5     3    31    1
     6     4     5   am
     7     4    32    1
     8     5     6    2
     9     5     7    1
    10     7     8   ar
    11     8     9   ar
    12     8    33    1
    13     9    10   ar
    14     9    34    1
    15    10    11   ar
    16    10    35    1
    17    11    12    1
    18    11    24   ar
    19    12    13    2
    20    12    14    2
    21    12    15    1
    22    15    16    1
    23    16    17    1
    24    16    36    1
    25    16    37    1
    26    17    18    1
    27    17    38    1
    28    17    39    1
    29    18    19   ar
    30    19    20   ar
    31    19    40    1
    32    20    21   ar
    33    20    41    1
    34    21    22   ar
    35    21    42    1
    36    22    23   ar
    37    22    43    1
    38    23    15    1
    39    23    18   ar
    40    24     7   ar
    41    24    44    1
    42    25    26   ar
    43    26    27   ar
    44    26    45    1
    45    27    28   ar
    46    27    46    1
    47    28    29   ar
    48    28    47    1
    49    29    30   ar
    50    29    48    1
    51    30    25   ar
    52    30    49    1
@<TRIPOS>MOLECULE
*****
 49 52 0 0 0
SMALL
GASTEIGER

@<TRIPOS>ATOM
      1 O           6.1571   -0.9877    0.2274 O.2     1  UNL11      -0.2687
      2 C           4.9701   -0.7965    0.6222 C.2     1  UNL11       0.2601
      3 N           4.5867    0.5286    0.8613 N.am    1  UNL11      -0.2301
      4 N           3.3074    0.9054    1.3171 N.am    1  UNL11      -0.2301
      5 C           2.1449    0.1582    1.0146 C.2     1  UNL11       0.2602
      6 O           2.3325   -0.8838    0.2986 O.2     1  UNL11      -0.2687
      7 C           0.7995    0.4582    1.4294 C.ar    1  UNL11       0.0400
      8 C           0.5929    1.5971    2.2108 C.ar    1  UNL11      -0.0495
      9 C          -0.6616    1.9109    2.6416 C.ar    1  UNL11      -0.0592
     10 C          -1.7467    1.1171    2.3186 C.ar    1  UNL11      -0.0350
     11 C          -1.5881   -0.0296    1.5410 C.ar    1  UNL11       0.1094
     12 S          -2.9718   -0.9978    1.2066 S.O2    1  UNL11       0.0747
     13 O          -3.2971   -1.0066   -0.2854 O.2     1  UNL11      -0.1498
     14 O          -4.1688   -0.2766    1.8211 O.2     1  UNL11      -0.1498
     15 N          -2.8848   -2.6071    1.7595 N.pl3   1  UNL11      -0.2024
     16 C          -2.3776   -3.7396    1.0231 C.3     1  UNL11       0.0390
     17 C          -2.1535   -4.8573    1.9859 C.3     1  UNL11      -0.0083
     18 C          -2.8767   -4.3928    3.2072 C.ar    1  UNL11      -0.0232
     19 C          -3.1312   -5.1047    4.3622 C.ar    1  UNL11      -0.0567
     20 C          -3.8155   -4.5358    5.4114 C.ar    1  UNL11      -0.0614
     21 C          -4.2332   -3.2309    5.2586 C.ar    1  UNL11      -0.0599
     22 C          -3.9795   -2.5176    4.1046 C.ar    1  UNL11      -0.0388
     23 C          -3.2894   -3.0879    3.0438 C.ar    1  UNL11       0.0545
     24 C          -0.3092   -0.3024    1.1314 C.ar    1  UNL11      -0.0229
     25 C           4.0820   -1.9571    0.8029 C.ar    1  UNL11       0.0382
     26 C           4.6457   -3.1838    1.1528 C.ar    1  UNL11      -0.0496
     27 C           3.8618   -4.3033    1.3374 C.ar    1  UNL11      -0.0610
     28 C           2.4721   -4.2441    1.1787 C.ar    1  UNL11      -0.0617
     29 C           1.9261   -3.0360    0.8349 C.ar    1  UNL11      -0.0610
     30 C           2.7331   -1.9135    0.6523 C.ar    1  UNL11      -0.0496
     31 H           5.2692    1.2991    0.7011 H       1  UNL11       0.1731
     32 H           3.1794    1.7643    1.9027 H       1  UNL11       0.1731
     33 H           1.4486    2.2404    2.4774 H       1  UNL11       0.0625
     34 H          -0.8114    2.8077    3.2555 H       1  UNL11       0.0618
     35 H          -2.7343    1.3848    2.6691 H       1  UNL11       0.0637
     36 H          -3.0460   -3.9822    0.1755 H       1  UNL11       0.0485
     37 H          -1.3765   -3.5050    0.5622 H       1  UNL11       0.0485
     38 H          -1.0560   -4.9743    2.2323 H       1  UNL11       0.0330
     39 H          -2.5101   -5.8493    1.6437 H       1  UNL11       0.0330
     40 H          -2.8061   -6.1266    4.4868 H       1  UNL11       0.0621
     41 H          -4.0223   -5.0963    6.3360 H       1  UNL11       0.0618
     42 H          -4.7726   -2.7794    6.0813 H       1  UNL11       0.0618
     43 H          -4.3067   -1.4917    3.9790 H       1  UNL11       0.0637
     44 H          -0.1693   -1.1934    0.5223 H       1  UNL11       0.0645
     45 H           5.7322   -3.2560    1.2826 H       1  UNL11       0.0625
     46 H           4.2571   -5.2715    1.6084 H       1  UNL11       0.0618
     47 H           1.8321   -5.1071    1.3178 H       1  UNL11       0.0618
     48 H           0.8528   -2.8788    0.6863 H       1  UNL11       0.0618
     49 H           2.2835   -0.9705    0.3827 H       1  UNL11       0.0625
@<TRIPOS>BOND
     1     1     2    2
     2     2     3   am
     3     2    25    1
     4     3     4    1
     5     3    31    1
     6     4     5   am
     7     4    32    1
     8     5     6    2
     9     5     7    1
    10     7     8   ar
    11     8     9   ar
    12     8    33    1
    13     9    10   ar
    14     9    34    1
    15    10    11   ar
    16    10    35    1
    17    11    12    1
    18    11    24   ar
    19    12    13    2
    20    12    14    2
    21    12    15    1
    22    15    16    1
    23    16    17    1
    24    16    36    1
    25    16    37    1
    26    17    18    1
    27    17    38    1
    28    17    39    1
    29    18    19   ar
    30    19    20   ar
    31    19    40    1
    32    20    21   ar
    33    20    41    1
    34    21    22   ar
    35    21    42    1
    36    22    23   ar
    37    22    43    1
    38    23    15    1
    39    23    18   ar
    40    24     7   ar
    41    24    44    1
    42    25    26   ar
    43    26    27   ar
    44    26    45    1
    45    27    28   ar
    46    27    46    1
    47    28    29   ar
    48    28    47    1
    49    29    30   ar
    50    29    48    1
    51    30    25   ar
    52    30    49    1
@<TRIPOS>MOLECULE
*****
 49 52 0 0 0
SMALL
GASTEIGER

@<TRIPOS>ATOM
      1 O           1.3747   -4.4445    0.3796 O.2     1  UNL11      -0.2687
      2 C           2.1457   -3.4654    0.1605 C.2     1  UNL11       0.2601
      3 N           1.9261   -2.3045    0.9117 N.am    1  UNL11      -0.2301
      4 N           2.6875   -1.1262    0.7760 N.am    1  UNL11      -0.2301
      5 C           2.1449    0.1582    1.0146 C.2     1  UNL11       0.2602
      6 O           2.9493    1.1357    0.8386 O.2     1  UNL11      -0.2687
      7 C           0.7995    0.4582    1.4294 C.ar    1  UNL11       0.0400
      8 C           0.5929    1.5971    2.2108 C.ar    1  UNL11      -0.0495
      9 C          -0.6616    1.9109    2.6416 C.ar    1  UNL11      -0.0592
     10 C          -1.7467    1.1171    2.3186 C.ar    1  UNL11      -0.0350
     11 C          -1.5881   -0.0296    1.5410 C.ar    1  UNL11       0.1094
     12 S          -2.9718   -0.9978    1.2066 S.O2    1  UNL11       0.0747
     13 O          -3.2971   -1.0066   -0.2854 O.2     1  UNL11      -0.1498
     14 O          -4.1688   -0.2766    1.8211 O.2     1  UNL11      -0.1498
     15 N          -2.8848   -2.6071    1.7595 N.pl3   1  UNL11      -0.2024
     16 C          -2.0454   -3.6522    1.2253 C.3     1  UNL11       0.0390
     17 C          -2.0153   -4.7728    2.2100 C.3     1  UNL11      -0.0083
     18 C          -3.1371   -4.4318    3.1349 C.ar    1  UNL11      -0.0232
     19 C          -3.6643   -5.2071    4.1480 C.ar    1  UNL11      -0.0567
     20 C          -4.7065   -4.7520    4.9223 C.ar    1  UNL11      -0.0614
     21 C          -5.1979   -3.4946    4.6427 C.ar    1  UNL11      -0.0599
     22 C          -4.6719   -2.7180    3.6302 C.ar    1  UNL11      -0.0388
     23 C          -3.6204   -3.1735    2.8469 C.ar    1  UNL11       0.0545
     24 C          -0.3092   -0.3024    1.1314 C.ar    1  UNL11      -0.0229
     25 C           3.2060   -3.6039   -0.8519 C.ar    1  UNL11       0.0382
     26 C           4.3899   -2.8859   -0.6845 C.ar    1  UNL11      -0.0496
     27 C           5.4172   -2.9792   -1.5997 C.ar    1  UNL11      -0.0610
     28 C           5.3042   -3.7991   -2.7289 C.ar    1  UNL11      -0.0617
     29 C           4.1386   -4.5009   -2.8863 C.ar    1  UNL11      -0.0610
     30 C           3.1096   -4.3954   -1.9511 C.ar    1  UNL11      -0.0496
     31 H           1.1608   -2.2852    1.6181 H       1  UNL11       0.1731
     32 H           3.6940   -1.1695    0.4895 H       1  UNL11       0.1731
     33 H           1.4486    2.2404    2.4774 H       1  UNL11       0.0625
     34 H          -0.8114    2.8077    3.2555 H       1  UNL11       0.0618
     35 H          -2.7343    1.3848    2.6691 H       1  UNL11       0.0637
     36 H          -2.3774   -3.9347    0.2084 H       1  UNL11       0.0485
     37 H          -0.9828   -3.2957    1.1092 H       1  UNL11       0.0485
     38 H          -1.0475   -4.7804    2.7951 H       1  UNL11       0.0330
     39 H          -2.1302   -5.7845    1.7724 H       1  UNL11       0.0330
     40 H          -3.2829   -6.1921    4.3711 H       1  UNL11       0.0621
     41 H          -5.1325   -5.3637    5.7323 H       1  UNL11       0.0618
     42 H          -6.0184   -3.1328    5.2488 H       1  UNL11       0.0618
     43 H          -5.0554   -1.7292    3.4056 H       1  UNL11       0.0637
     44 H          -0.1693   -1.1934    0.5223 H       1  UNL11       0.0645
     45 H           4.5025   -2.2363    0.1918 H       1  UNL11       0.0625
     46 H           6.3495   -2.4411   -1.5084 H       1  UNL11       0.0618
     47 H           6.0950   -3.8920   -3.4635 H       1  UNL11       0.0618
     48 H           3.9462   -5.1702   -3.7311 H       1  UNL11       0.0618
     49 H           2.1995   -4.9575   -2.0926 H       1  UNL11       0.0625
@<TRIPOS>BOND
     1     1     2    2
     2     2     3   am
     3     2    25    1
     4     3     4    1
     5     3    31    1
     6     4     5   am
     7     4    32    1
     8     5     6    2
     9     5     7    1
    10     7     8   ar
    11     8     9   ar
    12     8    33    1
    13     9    10   ar
    14     9    34    1
    15    10    11   ar
    16    10    35    1
    17    11    12    1
    18    11    24   ar
    19    12    13    2
    20    12    14    2
    21    12    15    1
    22    15    16    1
    23    16    17    1
    24    16    36    1
    25    16    37    1
    26    17    18    1
    27    17    38    1
    28    17    39    1
    29    18    19   ar
    30    19    20   ar
    31    19    40    1
    32    20    21   ar
    33    20    41    1
    34    21    22   ar
    35    21    42    1
    36    22    23   ar
    37    22    43    1
    38    23    15    1
    39    23    18   ar
    40    24     7   ar
    41    24    44    1
    42    25    26   ar
    43    26    27   ar
    44    26    45    1
    45    27    28   ar
    46    27    46    1
    47    28    29   ar
    48    28    47    1
    49    29    30   ar
    50    29    48    1
    51    30    25   ar
    52    30    49    1
@<TRIPOS>MOLECULE
*****
 49 52 0 0 0
SMALL
GASTEIGER

@<TRIPOS>ATOM
      1 O           1.6319   -4.5574    0.8425 O.2     1  UNL11      -0.2687
      2 C           2.4355   -3.5909    0.6972 C.2     1  UNL11       0.2601
      3 N           1.9261   -2.3045    0.9117 N.am    1  UNL11      -0.2301
      4 N           2.6875   -1.1262    0.7760 N.am    1  UNL11      -0.2301
      5 C           2.1449    0.1582    1.0146 C.2     1  UNL11       0.2602
      6 O           2.9493    1.1357    0.8386 O.2     1  UNL11      -0.2687
      7 C           0.7995    0.4582    1.4294 C.ar    1  UNL11       0.0400
      8 C           0.5929    1.5971    2.2108 C.ar    1  UNL11      -0.0495
      9 C          -0.6616    1.9109    2.6416 C.ar    1  UNL11      -0.0592
     10 C          -1.7467    1.1171    2.3186 C.ar    1  UNL11      -0.0350
     11 C          -1.5881   -0.0296    1.5410 C.ar    1  UNL11       0.1094
     12 S          -2.9718   -0.9978    1.2066 S.O2    1  UNL11       0.0747
     13 O          -2.6290   -2.1526    0.2680 O.2     1  UNL11      -0.1498
     14 O          -3.9161   -0.1369    0.3713 O.2     1  UNL11      -0.1498
     15 N          -3.7718   -1.6214    2.5757 N.pl3   1  UNL11      -0.2024
     16 C          -3.2830   -2.6543    3.4569 C.3     1  UNL11       0.0390
     17 C          -4.1113   -2.6365    4.6978 C.3     1  UNL11      -0.0083
     18 C          -5.2737   -1.7836    4.3084 C.ar    1  UNL11      -0.0232
     19 C          -6.4320   -1.5540    5.0233 C.ar    1  UNL11      -0.0567
     20 C          -7.4216   -0.7359    4.5292 C.ar    1  UNL11      -0.0614
     21 C          -7.2061   -0.1594    3.2956 C.ar    1  UNL11      -0.0599
     22 C          -6.0485   -0.3877    2.5796 C.ar    1  UNL11      -0.0388
     23 C          -5.0477   -1.2123    3.0746 C.ar    1  UNL11       0.0545
     24 C          -0.3092   -0.3024    1.1314 C.ar    1  UNL11      -0.0229
     25 C           3.8303   -3.8726    0.3183 C.ar    1  UNL11       0.0382
     26 C           4.8313   -3.0054    0.7552 C.ar    1  UNL11      -0.0496
     27 C           6.1545   -3.2216    0.4325 C.ar    1  UNL11      -0.0610
     28 C           6.5361   -4.3207   -0.3462 C.ar    1  UNL11      -0.0617
     29 C           5.5473   -5.1676   -0.7716 C.ar    1  UNL11      -0.0610
     30 C           4.2140   -4.9346   -0.4360 C.ar    1  UNL11      -0.0496
     31 H           0.9289   -2.1849    1.1878 H       1  UNL11       0.1731
     32 H           3.6940   -1.1695    0.4895 H       1  UNL11       0.1731
     33 H           1.4486    2.2404    2.4774 H       1  UNL11       0.0625
     34 H          -0.8114    2.8077    3.2555 H       1  UNL11       0.0618
     35 H          -2.7343    1.3848    2.6691 H       1  UNL11       0.0637
     36 H          -3.2504   -3.6281    2.9327 H       1  UNL11       0.0485
     37 H          -2.2221   -2.4448    3.7738 H       1  UNL11       0.0485
     38 H          -3.5619   -2.1393    5.5521 H       1  UNL11       0.0330
     39 H          -4.4307   -3.6332    5.0624 H       1  UNL11       0.0330
     40 H          -6.6055   -2.0028    5.9897 H       1  UNL11       0.0621
     41 H          -8.3482   -0.5472    5.0929 H       1  UNL11       0.0618
     42 H          -7.9824    0.4844    2.9025 H       1  UNL11       0.0618
     43 H          -5.8746    0.0623    1.6087 H       1  UNL11       0.0637
     44 H          -0.1693   -1.1934    0.5223 H       1  UNL11       0.0645
     45 H           4.5578   -2.1368    1.3663 H       1  UNL11       0.0625
     46 H           6.9602   -2.5756    0.7498 H       1  UNL11       0.0618
     47 H           7.5675   -4.5154   -0.6143 H       1  UNL11       0.0618
     48 H           5.7350   -6.0558   -1.3837 H       1  UNL11       0.0618
     49 H           3.4499   -5.6143   -0.7800 H       1  UNL11       0.0625
@<TRIPOS>BOND
     1     1     2    2
     2     2     3   am
     3     2    25    1
     4     3     4    1
     5     3    31    1
     6     4     5   am
     7     4    32    1
     8     5     6    2
     9     5     7    1
    10     7     8   ar
    11     8     9   ar
    12     8    33    1
    13     9    10   ar
    14     9    34    1
    15    10    11   ar
    16    10    35    1
    17    11    12    1
    18    11    24   ar
    19    12    13    2
    20    12    14    2
    21    12    15    1
    22    15    16    1
    23    16    17    1
    24    16    36    1
    25    16    37    1
    26    17    18    1
    27    17    38    1
    28    17    39    1
    29    18    19   ar
    30    19    20   ar
    31    19    40    1
    32    20    21   ar
    33    20    41    1
    34    21    22   ar
    35    21    42    1
    36    22    23   ar
    37    22    43    1
    38    23    15    1
    39    23    18   ar
    40    24     7   ar
    41    24    44    1
    42    25    26   ar
    43    26    27   ar
    44    26    45    1
    45    27    28   ar
    46    27    46    1
    47    28    29   ar
    48    28    47    1
    49    29    30   ar
    50    29    48    1
    51    30    25   ar
    52    30    49    1
@<TRIPOS>MOLECULE
*****
 49 52 0 0 0
SMALL
GASTEIGER

@<TRIPOS>ATOM
      1 O           6.8514    0.4120    1.0192 O.2     1  UNL11      -0.2687
      2 C           5.7723    0.7980    1.5557 C.2     1  UNL11       0.2601
      3 N           4.5867    0.5286    0.8613 N.am    1  UNL11      -0.2301
      4 N           3.3074    0.9054    1.3171 N.am    1  UNL11      -0.2301
      5 C           2.1449    0.1582    1.0146 C.2     1  UNL11       0.2602
      6 O           2.3325   -0.8838    0.2986 O.2     1  UNL11      -0.2687
      7 C           0.7995    0.4582    1.4294 C.ar    1  UNL11       0.0400
      8 C           0.5929    1.5971    2.2108 C.ar    1  UNL11      -0.0495
      9 C          -0.6616    1.9109    2.6416 C.ar    1  UNL11      -0.0592
     10 C          -1.7467    1.1171    2.3186 C.ar    1  UNL11      -0.0350
     11 C          -1.5881   -0.0296    1.5410 C.ar    1  UNL11       0.1094
     12 S          -2.9718   -0.9978    1.2066 S.O2    1  UNL11       0.0747
     13 O          -2.6290   -2.1526    0.2680 O.2     1  UNL11      -0.1498
     14 O          -3.9161   -0.1369    0.3713 O.2     1  UNL11      -0.1498
     15 N          -3.7718   -1.6214    2.5757 N.pl3   1  UNL11      -0.2024
     16 C          -3.5071   -2.8846    3.2210 C.3     1  UNL11       0.0390
     17 C          -4.1663   -2.8696    4.5595 C.3     1  UNL11      -0.0083
     18 C          -5.0745   -1.6876    4.4686 C.ar    1  UNL11      -0.0232
     19 C          -6.0423   -1.2925    5.3701 C.ar    1  UNL11      -0.0567
     20 C          -6.8061   -0.1703    5.1465 C.ar    1  UNL11      -0.0614
     21 C          -6.5632    0.5377    3.9888 C.ar    1  UNL11      -0.0599
     22 C          -5.5959    0.1442    3.0863 C.ar    1  UNL11      -0.0388
     23 C          -4.8231   -0.9873    3.3083 C.ar    1  UNL11       0.0545
     24 C          -0.3092   -0.3024    1.1314 C.ar    1  UNL11      -0.0229
     25 C           5.8283    1.4940    2.8522 C.ar    1  UNL11       0.0382
     26 C           6.9601    2.2490    3.1588 C.ar    1  UNL11      -0.0496
     27 C           7.0656    2.9235    4.3569 C.ar    1  UNL11      -0.0610
     28 C           6.0379    2.8715    5.3062 C.ar    1  UNL11      -0.0617
     29 C           4.9298    2.1279    4.9979 C.ar    1  UNL11      -0.0610
     30 C           4.8390    1.4520    3.7815 C.ar    1  UNL11      -0.0496
     31 H           4.6262    0.0220   -0.0480 H       1  UNL11       0.1731
     32 H           3.1794    1.7643    1.9027 H       1  UNL11       0.1731
     33 H           1.4486    2.2404    2.4774 H       1  UNL11       0.0625
     34 H          -0.8114    2.8077    3.2555 H       1  UNL11       0.0618
     35 H          -2.7343    1.3848    2.6691 H       1  UNL11       0.0637
     36 H          -3.8036   -3.7249    2.5653 H       1  UNL11       0.0485
     37 H          -2.4037   -3.0191    3.4061 H       1  UNL11       0.0485
     38 H          -3.4152   -2.6919    5.3861 H       1  UNL11       0.0330
     39 H          -4.7149   -3.7961    4.8222 H       1  UNL11       0.0330
     40 H          -6.2362   -1.8432    6.2782 H       1  UNL11       0.0621
     41 H          -7.5796    0.1519    5.8604 H       1  UNL11       0.0618
     42 H          -7.1624    1.4209    3.8083 H       1  UNL11       0.0618
     43 H          -5.4017    0.6967    2.1740 H       1  UNL11       0.0637
     44 H          -0.1693   -1.1934    0.5223 H       1  UNL11       0.0645
     45 H           7.7791    2.3051    2.4316 H       1  UNL11       0.0625
     46 H           7.9235    3.5189    4.6339 H       1  UNL11       0.0618
     47 H           6.0936    3.3916    6.2548 H       1  UNL11       0.0618
     48 H           4.0697    2.0201    5.6667 H       1  UNL11       0.0618
     49 H           3.9571    0.8724    3.5570 H       1  UNL11       0.0625
@<TRIPOS>BOND
     1     1     2    2
     2     2     3   am
     3     2    25    1
     4     3     4    1
     5     3    31    1
     6     4     5   am
     7     4    32    1
     8     5     6    2
     9     5     7    1
    10     7     8   ar
    11     8     9   ar
    12     8    33    1
    13     9    10   ar
    14     9    34    1
    15    10    11   ar
    16    10    35    1
    17    11    12    1
    18    11    24   ar
    19    12    13    2
    20    12    14    2
    21    12    15    1
    22    15    16    1
    23    16    17    1
    24    16    36    1
    25    16    37    1
    26    17    18    1
    27    17    38    1
    28    17    39    1
    29    18    19   ar
    30    19    20   ar
    31    19    40    1
    32    20    21   ar
    33    20    41    1
    34    21    22   ar
    35    21    42    1
    36    22    23   ar
    37    22    43    1
    38    23    15    1
    39    23    18   ar
    40    24     7   ar
    41    24    44    1
    42    25    26   ar
    43    26    27   ar
    44    26    45    1
    45    27    28   ar
    46    27    46    1
    47    28    29   ar
    48    28    47    1
    49    29    30   ar
    50    29    48    1
    51    30    25   ar
    52    30    49    1
