@<TRIPOS>MOLECULE
*****
 38 41 0 0 0
SMALL
GASTEIGER

@<TRIPOS>ATOM
      1 O          -0.9099    2.1160   -1.0353 O.2     1  UNL11      -0.2681
      2 C          -0.6092    0.9966   -0.5506 C.2     1  UNL11       0.2716
      3 C          -1.5800    0.0708   -0.0512 C.2     1  UNL11       0.1990
      4 N          -2.7491    0.5244    0.4781 N.2     1  UNL11       0.0021
      5 N          -3.6976   -0.2373    0.9592 N.am    1  UNL11      -0.0351
      6 C          -3.5632   -1.5847    0.9577 C.2     1  UNL11       0.4383
      7 O          -4.4526   -2.3474    1.4110 O.2     1  UNL11      -0.2116
      8 C          -2.4169   -2.1505    0.4441 C.ar    1  UNL11       0.1009
      9 C          -2.2759   -3.5191    0.4403 C.ar    1  UNL11      -0.0441
     10 C          -1.1374   -4.1071   -0.0688 C.ar    1  UNL11      -0.0608
     11 C          -0.1656   -3.2787   -0.5640 C.ar    1  UNL11      -0.0611
     12 C          -0.3066   -1.8932   -0.5609 C.ar    1  UNL11      -0.0513
     13 C          -1.4313   -1.3007   -0.0584 C.ar    1  UNL11       0.0282
     14 N           0.7730    0.6640   -0.5114 N.am    1  UNL11      -0.2915
     15 C           1.7224    1.6416   -1.0330 C.3     1  UNL11       0.0194
     16 C           2.7874    1.8209    0.0611 C.3     1  UNL11      -0.0115
     17 C           3.5199    0.5092    0.0565 C.ar    1  UNL11      -0.0412
     18 C           4.8843    0.3929    0.0746 C.ar    1  UNL11      -0.0582
     19 C           5.4743   -0.8675    0.0596 C.ar    1  UNL11      -0.0615
     20 C           4.7012   -2.0089    0.0266 C.ar    1  UNL11      -0.0614
     21 C           3.3327   -1.8486    0.0094 C.ar    1  UNL11      -0.0568
     22 C           2.7476   -0.6166    0.0240 C.ar    1  UNL11      -0.0269
     23 C           1.2505   -0.5663    0.0107 C.3     1  UNL11       0.0403
     24 H          -4.5673    0.1854    1.3491 H       1  UNL11       0.4829
     25 H          -3.0556   -4.1802    0.8374 H       1  UNL11       0.0627
     26 H          -1.0332   -5.1896   -0.0685 H       1  UNL11       0.0618
     27 H           0.7346   -3.6850   -0.9692 H       1  UNL11       0.0618
     28 H           0.4815   -1.2894   -0.9596 H       1  UNL11       0.0624
     29 H           2.2632    1.2079   -1.8971 H       1  UNL11       0.0468
     30 H           1.2342    2.6089   -1.2641 H       1  UNL11       0.0468
     31 H           2.2499    1.8928    1.0060 H       1  UNL11       0.0328
     32 H           3.4430    2.6633   -0.1650 H       1  UNL11       0.0328
     33 H           5.4946    1.3063    0.1009 H       1  UNL11       0.0620
     34 H           6.5372   -0.9582    0.0738 H       1  UNL11       0.0618
     35 H           5.1601   -3.0057    0.0145 H       1  UNL11       0.0618
     36 H           2.7487   -2.7735   -0.0167 H       1  UNL11       0.0621
     37 H           0.8461   -1.4056   -0.5969 H       1  UNL11       0.0514
     38 H           0.9670   -0.7581    1.0841 H       1  UNL11       0.0514
@<TRIPOS>BOND
     1     1     2    2
     2     2     3    1
     3     2    14   am
     4     3     4    2
     5     4     5    1
     6     5     6   am
     7     5    24    1
     8     6     7    2
     9     6     8    1
    10     8     9   ar
    11     9    10   ar
    12     9    25    1
    13    10    11   ar
    14    10    26    1
    15    11    12   ar
    16    11    27    1
    17    12    13   ar
    18    12    28    1
    19    13     3    1
    20    13     8   ar
    21    14    15    1
    22    15    16    1
    23    15    29    1
    24    15    30    1
    25    16    17    1
    26    16    31    1
    27    16    32    1
    28    17    18   ar
    29    18    19   ar
    30    18    33    1
    31    19    20   ar
    32    19    34    1
    33    20    21   ar
    34    20    35    1
    35    21    22   ar
    36    21    36    1
    37    22    23    1
    38    22    17   ar
    39    23    14    1
    40    23    37    1
    41    23    38    1
@<TRIPOS>MOLECULE
*****
 38 41 0 0 0
SMALL
GASTEIGER

@<TRIPOS>ATOM
      1 O          -0.9099    2.1160   -1.0353 O.2     1  UNL11      -0.2681
      2 C          -0.6092    0.9966   -0.5506 C.2     1  UNL11       0.2716
      3 C          -1.5800    0.0708   -0.0512 C.2     1  UNL11       0.1990
      4 N          -2.9044    0.3829   -0.0862 N.2     1  UNL11       0.0021
      5 N          -3.8670   -0.3918    0.3436 N.am    1  UNL11      -0.0351
      6 C          -3.5864   -1.6061    0.8729 C.2     1  UNL11       0.4383
      7 O          -4.4842   -2.3766    1.2955 O.2     1  UNL11      -0.2116
      8 C          -2.2757   -2.0223    0.9562 C.ar    1  UNL11       0.1009
      9 C          -1.9857   -3.2554    1.4930 C.ar    1  UNL11      -0.0441
     10 C          -0.6814   -3.6925    1.5861 C.ar    1  UNL11      -0.0608
     11 C           0.3001   -2.8552    1.1263 C.ar    1  UNL11      -0.0611
     12 C           0.0084   -1.6067    0.5826 C.ar    1  UNL11      -0.0513
     13 C          -1.2814   -1.1643    0.4860 C.ar    1  UNL11       0.0282
     14 N           0.7730    0.6640   -0.5114 N.am    1  UNL11      -0.2915
     15 C           1.7224    1.6416   -1.0330 C.3     1  UNL11       0.0194
     16 C           2.7874    1.8209    0.0611 C.3     1  UNL11      -0.0115
     17 C           3.5199    0.5092    0.0565 C.ar    1  UNL11      -0.0412
     18 C           4.8843    0.3929    0.0746 C.ar    1  UNL11      -0.0582
     19 C           5.4743   -0.8675    0.0596 C.ar    1  UNL11      -0.0615
     20 C           4.7012   -2.0089    0.0266 C.ar    1  UNL11      -0.0614
     21 C           3.3327   -1.8486    0.0094 C.ar    1  UNL11      -0.0568
     22 C           2.7476   -0.6166    0.0240 C.ar    1  UNL11      -0.0269
     23 C           1.2505   -0.5663    0.0107 C.3     1  UNL11       0.0403
     24 H          -4.8606   -0.0820    0.2831 H       1  UNL11       0.4829
     25 H          -2.7736   -3.9240    1.8606 H       1  UNL11       0.0627
     26 H          -0.4600   -4.6686    2.0117 H       1  UNL11       0.0618
     27 H           1.3256   -3.1475    1.1761 H       1  UNL11       0.0618
     28 H           0.8111   -0.9896    0.2370 H       1  UNL11       0.0624
     29 H           2.2632    1.2079   -1.8971 H       1  UNL11       0.0468
     30 H           1.2342    2.6089   -1.2641 H       1  UNL11       0.0468
     31 H           2.2499    1.8928    1.0060 H       1  UNL11       0.0328
     32 H           3.4430    2.6633   -0.1650 H       1  UNL11       0.0328
     33 H           5.4946    1.3063    0.1009 H       1  UNL11       0.0620
     34 H           6.5372   -0.9582    0.0738 H       1  UNL11       0.0618
     35 H           5.1601   -3.0057    0.0145 H       1  UNL11       0.0618
     36 H           2.7487   -2.7735   -0.0167 H       1  UNL11       0.0621
     37 H           0.8461   -1.4056   -0.5969 H       1  UNL11       0.0514
     38 H           0.9670   -0.7581    1.0841 H       1  UNL11       0.0514
@<TRIPOS>BOND
     1     1     2    2
     2     2     3    1
     3     2    14   am
     4     3     4    2
     5     4     5    1
     6     5     6   am
     7     5    24    1
     8     6     7    2
     9     6     8    1
    10     8     9   ar
    11     9    10   ar
    12     9    25    1
    13    10    11   ar
    14    10    26    1
    15    11    12   ar
    16    11    27    1
    17    12    13   ar
    18    12    28    1
    19    13     3    1
    20    13     8   ar
    21    14    15    1
    22    15    16    1
    23    15    29    1
    24    15    30    1
    25    16    17    1
    26    16    31    1
    27    16    32    1
    28    17    18   ar
    29    18    19   ar
    30    18    33    1
    31    19    20   ar
    32    19    34    1
    33    20    21   ar
    34    20    35    1
    35    21    22   ar
    36    21    36    1
    37    22    23    1
    38    22    17   ar
    39    23    14    1
    40    23    37    1
    41    23    38    1
@<TRIPOS>MOLECULE
*****
 38 41 0 0 0
SMALL
GASTEIGER

@<TRIPOS>ATOM
      1 O          -0.9099    2.1160   -1.0353 O.2     1  UNL11      -0.2681
      2 C          -0.6092    0.9966   -0.5506 C.2     1  UNL11       0.2716
      3 C          -1.5800    0.0708   -0.0512 C.2     1  UNL11       0.1990
      4 N          -2.8345    0.0438   -0.5788 N.2     1  UNL11       0.0021
      5 N          -3.7906   -0.7618   -0.1938 N.am    1  UNL11      -0.0351
      6 C          -3.5757   -1.6572    0.7990 C.2     1  UNL11       0.4383
      7 O          -4.4696   -2.4462    1.1949 O.2     1  UNL11      -0.2116
      8 C          -2.3390   -1.7148    1.4033 C.ar    1  UNL11       0.1009
      9 C          -2.1159   -2.6230    2.4124 C.ar    1  UNL11      -0.0441
     10 C          -0.8861   -2.6984    3.0312 C.ar    1  UNL11      -0.0608
     11 C           0.0909   -1.8397    2.6022 C.ar    1  UNL11      -0.0611
     12 C          -0.1331   -0.9197    1.5810 C.ar    1  UNL11      -0.0513
     13 C          -1.3488   -0.8372    0.9614 C.ar    1  UNL11       0.0282
     14 N           0.7730    0.6640   -0.5114 N.am    1  UNL11      -0.2915
     15 C           1.7224    1.6416   -1.0330 C.3     1  UNL11       0.0194
     16 C           2.7874    1.8209    0.0611 C.3     1  UNL11      -0.0115
     17 C           3.5199    0.5092    0.0565 C.ar    1  UNL11      -0.0412
     18 C           4.8843    0.3929    0.0746 C.ar    1  UNL11      -0.0582
     19 C           5.4743   -0.8675    0.0596 C.ar    1  UNL11      -0.0615
     20 C           4.7012   -2.0089    0.0266 C.ar    1  UNL11      -0.0614
     21 C           3.3327   -1.8486    0.0094 C.ar    1  UNL11      -0.0568
     22 C           2.7476   -0.6166    0.0240 C.ar    1  UNL11      -0.0269
     23 C           1.2505   -0.5663    0.0107 C.3     1  UNL11       0.0403
     24 H          -4.7284   -0.7227   -0.6475 H       1  UNL11       0.4829
     25 H          -2.9000   -3.3095    2.7540 H       1  UNL11       0.0627
     26 H          -0.7173   -3.4190    3.8281 H       1  UNL11       0.0618
     27 H           1.0601   -1.8587    3.0493 H       1  UNL11       0.0618
     28 H           0.6631   -0.2707    1.2819 H       1  UNL11       0.0624
     29 H           2.2632    1.2079   -1.8971 H       1  UNL11       0.0468
     30 H           1.2342    2.6089   -1.2641 H       1  UNL11       0.0468
     31 H           2.2499    1.8928    1.0060 H       1  UNL11       0.0328
     32 H           3.4430    2.6633   -0.1650 H       1  UNL11       0.0328
     33 H           5.4946    1.3063    0.1009 H       1  UNL11       0.0620
     34 H           6.5372   -0.9582    0.0738 H       1  UNL11       0.0618
     35 H           5.1601   -3.0057    0.0145 H       1  UNL11       0.0618
     36 H           2.7487   -2.7735   -0.0167 H       1  UNL11       0.0621
     37 H           0.8461   -1.4056   -0.5969 H       1  UNL11       0.0514
     38 H           0.9670   -0.7581    1.0841 H       1  UNL11       0.0514
@<TRIPOS>BOND
     1     1     2    2
     2     2     3    1
     3     2    14   am
     4     3     4    2
     5     4     5    1
     6     5     6   am
     7     5    24    1
     8     6     7    2
     9     6     8    1
    10     8     9   ar
    11     9    10   ar
    12     9    25    1
    13    10    11   ar
    14    10    26    1
    15    11    12   ar
    16    11    27    1
    17    12    13   ar
    18    12    28    1
    19    13     3    1
    20    13     8   ar
    21    14    15    1
    22    15    16    1
    23    15    29    1
    24    15    30    1
    25    16    17    1
    26    16    31    1
    27    16    32    1
    28    17    18   ar
    29    18    19   ar
    30    18    33    1
    31    19    20   ar
    32    19    34    1
    33    20    21   ar
    34    20    35    1
    35    21    22   ar
    36    21    36    1
    37    22    23    1
    38    22    17   ar
    39    23    14    1
    40    23    37    1
    41    23    38    1
@<TRIPOS>MOLECULE
*****
 38 41 0 0 0
SMALL
GASTEIGER

@<TRIPOS>ATOM
      1 O          -0.9099    2.1160   -1.0353 O.2     1  UNL11      -0.2681
      2 C          -0.6092    0.9966   -0.5506 C.2     1  UNL11       0.2716
      3 C          -1.5800    0.0708   -0.0512 C.2     1  UNL11       0.1990
      4 N          -1.3451   -1.2684   -0.1162 N.2     1  UNL11       0.0021
      5 N          -2.1656   -2.1932    0.3113 N.am    1  UNL11      -0.0351
      6 C          -3.3519   -1.8540    0.8692 C.2     1  UNL11       0.4383
      7 O          -4.1647   -2.7143    1.2906 O.2     1  UNL11      -0.2116
      8 C          -3.6905   -0.5236    0.9844 C.ar    1  UNL11       0.1009
      9 C          -4.8946   -0.1741    1.5508 C.ar    1  UNL11      -0.0441
     10 C          -5.2540    1.1511    1.6765 C.ar    1  UNL11      -0.0608
     11 C          -4.3704    2.0918    1.2182 C.ar    1  UNL11      -0.0611
     12 C          -3.1511    1.7399    0.6446 C.ar    1  UNL11      -0.0513
     13 C          -2.7857    0.4290    0.5155 C.ar    1  UNL11       0.0282
     14 N           0.7730    0.6640   -0.5114 N.am    1  UNL11      -0.2915
     15 C           1.7224    1.6416   -1.0330 C.3     1  UNL11       0.0194
     16 C           2.7874    1.8209    0.0611 C.3     1  UNL11      -0.0115
     17 C           3.5199    0.5092    0.0565 C.ar    1  UNL11      -0.0412
     18 C           4.8843    0.3929    0.0746 C.ar    1  UNL11      -0.0582
     19 C           5.4743   -0.8675    0.0596 C.ar    1  UNL11      -0.0615
     20 C           4.7012   -2.0089    0.0266 C.ar    1  UNL11      -0.0614
     21 C           3.3327   -1.8486    0.0094 C.ar    1  UNL11      -0.0568
     22 C           2.7476   -0.6166    0.0240 C.ar    1  UNL11      -0.0269
     23 C           1.2505   -0.5663    0.0107 C.3     1  UNL11       0.0403
     24 H          -1.9147   -3.2016    0.2266 H       1  UNL11       0.4829
     25 H          -5.6004   -0.9294    1.9170 H       1  UNL11       0.0627
     26 H          -6.2076    1.4196    2.1254 H       1  UNL11       0.0618
     27 H          -4.6022    3.1312    1.2927 H       1  UNL11       0.0618
     28 H          -2.4953    2.5126    0.3021 H       1  UNL11       0.0624
     29 H           2.2632    1.2079   -1.8971 H       1  UNL11       0.0468
     30 H           1.2342    2.6089   -1.2641 H       1  UNL11       0.0468
     31 H           2.2499    1.8928    1.0060 H       1  UNL11       0.0328
     32 H           3.4430    2.6633   -0.1650 H       1  UNL11       0.0328
     33 H           5.4946    1.3063    0.1009 H       1  UNL11       0.0620
     34 H           6.5372   -0.9582    0.0738 H       1  UNL11       0.0618
     35 H           5.1601   -3.0057    0.0145 H       1  UNL11       0.0618
     36 H           2.7487   -2.7735   -0.0167 H       1  UNL11       0.0621
     37 H           0.8461   -1.4056   -0.5969 H       1  UNL11       0.0514
     38 H           0.9670   -0.7581    1.0841 H       1  UNL11       0.0514
@<TRIPOS>BOND
     1     1     2    2
     2     2     3    1
     3     2    14   am
     4     3     4    2
     5     4     5    1
     6     5     6   am
     7     5    24    1
     8     6     7    2
     9     6     8    1
    10     8     9   ar
    11     9    10   ar
    12     9    25    1
    13    10    11   ar
    14    10    26    1
    15    11    12   ar
    16    11    27    1
    17    12    13   ar
    18    12    28    1
    19    13     3    1
    20    13     8   ar
    21    14    15    1
    22    15    16    1
    23    15    29    1
    24    15    30    1
    25    16    17    1
    26    16    31    1
    27    16    32    1
    28    17    18   ar
    29    18    19   ar
    30    18    33    1
    31    19    20   ar
    32    19    34    1
    33    20    21   ar
    34    20    35    1
    35    21    22   ar
    36    21    36    1
    37    22    23    1
    38    22    17   ar
    39    23    14    1
    40    23    37    1
    41    23    38    1
@<TRIPOS>MOLECULE
*****
 38 41 0 0 0
SMALL
GASTEIGER

@<TRIPOS>ATOM
      1 O          -1.4104    0.1484   -0.0846 O.2     1  UNL11      -0.2681
      2 C          -0.6092    0.9966   -0.5506 C.2     1  UNL11       0.2716
      3 C          -1.0259    2.2496   -1.1032 C.2     1  UNL11       0.1990
      4 N          -2.2449    2.3635   -1.6980 N.2     1  UNL11       0.0021
      5 N          -2.7173    3.4607   -2.2312 N.am    1  UNL11      -0.0351
      6 C          -1.9849    4.5996   -2.2209 C.2     1  UNL11       0.4383
      7 O          -2.4058    5.6716   -2.7230 O.2     1  UNL11      -0.2116
      8 C          -0.7344    4.5956   -1.6429 C.ar    1  UNL11       0.1009
      9 C           0.0134    5.7504   -1.6298 C.ar    1  UNL11      -0.0441
     10 C           1.2672    5.7696   -1.0568 C.ar    1  UNL11      -0.0608
     11 C           1.7293    4.6027   -0.5083 C.ar    1  UNL11      -0.0611
     12 C           0.9739    3.4329   -0.5206 C.ar    1  UNL11      -0.0513
     13 C          -0.2702    3.4037   -1.0863 C.ar    1  UNL11       0.0282
     14 N           0.7730    0.6640   -0.5114 N.am    1  UNL11      -0.2915
     15 C           1.7224    1.6416   -1.0330 C.3     1  UNL11       0.0194
     16 C           2.7874    1.8209    0.0611 C.3     1  UNL11      -0.0115
     17 C           3.5199    0.5092    0.0565 C.ar    1  UNL11      -0.0412
     18 C           4.8843    0.3929    0.0746 C.ar    1  UNL11      -0.0582
     19 C           5.4743   -0.8675    0.0596 C.ar    1  UNL11      -0.0615
     20 C           4.7012   -2.0089    0.0266 C.ar    1  UNL11      -0.0614
     21 C           3.3327   -1.8486    0.0094 C.ar    1  UNL11      -0.0568
     22 C           2.7476   -0.6166    0.0240 C.ar    1  UNL11      -0.0269
     23 C           1.2505   -0.5663    0.0107 C.3     1  UNL11       0.0403
     24 H          -3.6630    3.4696   -2.6700 H       1  UNL11       0.4829
     25 H          -0.3590    6.6834   -2.0698 H       1  UNL11       0.0627
     26 H           1.8524    6.6863   -1.0502 H       1  UNL11       0.0618
     27 H           2.6940    4.5658   -0.0525 H       1  UNL11       0.0618
     28 H           1.3797    2.5472   -0.0786 H       1  UNL11       0.0624
     29 H           2.2632    1.2079   -1.8971 H       1  UNL11       0.0468
     30 H           1.2342    2.6089   -1.2641 H       1  UNL11       0.0468
     31 H           2.2499    1.8928    1.0060 H       1  UNL11       0.0328
     32 H           3.4430    2.6633   -0.1650 H       1  UNL11       0.0328
     33 H           5.4946    1.3063    0.1009 H       1  UNL11       0.0620
     34 H           6.5372   -0.9582    0.0738 H       1  UNL11       0.0618
     35 H           5.1601   -3.0057    0.0145 H       1  UNL11       0.0618
     36 H           2.7487   -2.7735   -0.0167 H       1  UNL11       0.0621
     37 H           0.8461   -1.4056   -0.5969 H       1  UNL11       0.0514
     38 H           0.9670   -0.7581    1.0841 H       1  UNL11       0.0514
@<TRIPOS>BOND
     1     1     2    2
     2     2     3    1
     3     2    14   am
     4     3     4    2
     5     4     5    1
     6     5     6   am
     7     5    24    1
     8     6     7    2
     9     6     8    1
    10     8     9   ar
    11     9    10   ar
    12     9    25    1
    13    10    11   ar
    14    10    26    1
    15    11    12   ar
    16    11    27    1
    17    12    13   ar
    18    12    28    1
    19    13     3    1
    20    13     8   ar
    21    14    15    1
    22    15    16    1
    23    15    29    1
    24    15    30    1
    25    16    17    1
    26    16    31    1
    27    16    32    1
    28    17    18   ar
    29    18    19   ar
    30    18    33    1
    31    19    20   ar
    32    19    34    1
    33    20    21   ar
    34    20    35    1
    35    21    22   ar
    36    21    36    1
    37    22    23    1
    38    22    17   ar
    39    23    14    1
    40    23    37    1
    41    23    38    1
@<TRIPOS>MOLECULE
*****
 38 41 0 0 0
SMALL
GASTEIGER

@<TRIPOS>ATOM
      1 O          -1.4104    0.1484   -0.0846 O.2     1  UNL11      -0.2681
      2 C          -0.6092    0.9966   -0.5506 C.2     1  UNL11       0.2716
      3 C          -1.0259    2.2496   -1.1032 C.2     1  UNL11       0.1990
      4 N          -2.3472    2.5741   -1.1433 N.2     1  UNL11       0.0021
      5 N          -2.8288    3.6905   -1.6260 N.am    1  UNL11      -0.0351
      6 C          -2.0001    4.6313   -2.1375 C.2     1  UNL11       0.4383
      7 O          -2.4264    5.7148   -2.6094 O.2     1  UNL11      -0.2116
      8 C          -0.6412    4.4046   -2.1463 C.ar    1  UNL11       0.1009
      9 C           0.2047    5.3576   -2.6648 C.ar    1  UNL11      -0.0441
     10 C           1.5679    5.1521   -2.6837 C.ar    1  UNL11      -0.0608
     11 C           2.0364    3.9721   -2.1699 C.ar    1  UNL11      -0.0611
     12 C           1.1816    3.0062   -1.6447 C.ar    1  UNL11      -0.0513
     13 C          -0.1713    3.2005   -1.6215 C.ar    1  UNL11       0.0282
     14 N           0.7730    0.6640   -0.5114 N.am    1  UNL11      -0.2915
     15 C           1.7224    1.6416   -1.0330 C.3     1  UNL11       0.0194
     16 C           2.7874    1.8209    0.0611 C.3     1  UNL11      -0.0115
     17 C           3.5199    0.5092    0.0565 C.ar    1  UNL11      -0.0412
     18 C           4.8843    0.3929    0.0746 C.ar    1  UNL11      -0.0582
     19 C           5.4743   -0.8675    0.0596 C.ar    1  UNL11      -0.0615
     20 C           4.7012   -2.0089    0.0266 C.ar    1  UNL11      -0.0614
     21 C           3.3327   -1.8486    0.0094 C.ar    1  UNL11      -0.0568
     22 C           2.7476   -0.6166    0.0240 C.ar    1  UNL11      -0.0269
     23 C           1.2505   -0.5663    0.0107 C.3     1  UNL11       0.0403
     24 H          -3.8562    3.8675   -1.6220 H       1  UNL11       0.4829
     25 H          -0.1730    6.3018   -3.0756 H       1  UNL11       0.0627
     26 H           2.2304    5.9102   -3.0952 H       1  UNL11       0.0618
     27 H           3.0837    3.7653   -2.1615 H       1  UNL11       0.0618
     28 H           1.5971    2.1007   -1.2550 H       1  UNL11       0.0624
     29 H           2.2632    1.2079   -1.8971 H       1  UNL11       0.0468
     30 H           1.2342    2.6089   -1.2641 H       1  UNL11       0.0468
     31 H           2.2499    1.8928    1.0060 H       1  UNL11       0.0328
     32 H           3.4430    2.6633   -0.1650 H       1  UNL11       0.0328
     33 H           5.4946    1.3063    0.1009 H       1  UNL11       0.0620
     34 H           6.5372   -0.9582    0.0738 H       1  UNL11       0.0618
     35 H           5.1601   -3.0057    0.0145 H       1  UNL11       0.0618
     36 H           2.7487   -2.7735   -0.0167 H       1  UNL11       0.0621
     37 H           0.8461   -1.4056   -0.5969 H       1  UNL11       0.0514
     38 H           0.9670   -0.7581    1.0841 H       1  UNL11       0.0514
@<TRIPOS>BOND
     1     1     2    2
     2     2     3    1
     3     2    14   am
     4     3     4    2
     5     4     5    1
     6     5     6   am
     7     5    24    1
     8     6     7    2
     9     6     8    1
    10     8     9   ar
    11     9    10   ar
    12     9    25    1
    13    10    11   ar
    14    10    26    1
    15    11    12   ar
    16    11    27    1
    17    12    13   ar
    18    12    28    1
    19    13     3    1
    20    13     8   ar
    21    14    15    1
    22    15    16    1
    23    15    29    1
    24    15    30    1
    25    16    17    1
    26    16    31    1
    27    16    32    1
    28    17    18   ar
    29    18    19   ar
    30    18    33    1
    31    19    20   ar
    32    19    34    1
    33    20    21   ar
    34    20    35    1
    35    21    22   ar
    36    21    36    1
    37    22    23    1
    38    22    17   ar
    39    23    14    1
    40    23    37    1
    41    23    38    1
@<TRIPOS>MOLECULE
*****
 38 41 0 0 0
SMALL
GASTEIGER

@<TRIPOS>ATOM
      1 O          -1.4104    0.1484   -0.0846 O.2     1  UNL11      -0.2681
      2 C          -0.6092    0.9966   -0.5506 C.2     1  UNL11       0.2716
      3 C          -1.0259    2.2496   -1.1032 C.2     1  UNL11       0.1990
      4 N          -2.1557    2.8565   -0.6472 N.2     1  UNL11       0.0021
      5 N          -2.6198    3.9987   -1.0848 N.am    1  UNL11      -0.0351
      6 C          -1.9711    4.6738   -2.0631 C.2     1  UNL11       0.4383
      7 O          -2.3869    5.7726   -2.5081 O.2     1  UNL11      -0.2116
      8 C          -0.8147    4.1483   -2.5966 C.ar    1  UNL11       0.1009
      9 C          -0.1521    4.8307   -3.5906 C.ar    1  UNL11      -0.0441
     10 C           1.0070    4.3239   -4.1389 C.ar    1  UNL11      -0.0608
     11 C           1.4633    3.1261   -3.6562 C.ar    1  UNL11      -0.0611
     12 C           0.7939    2.4339   -2.6501 C.ar    1  UNL11      -0.0513
     13 C          -0.3559    2.9280   -2.1002 C.ar    1  UNL11       0.0282
     14 N           0.7730    0.6640   -0.5114 N.am    1  UNL11      -0.2915
     15 C           1.7224    1.6416   -1.0330 C.3     1  UNL11       0.0194
     16 C           2.7874    1.8209    0.0611 C.3     1  UNL11      -0.0115
     17 C           3.5199    0.5092    0.0565 C.ar    1  UNL11      -0.0412
     18 C           4.8843    0.3929    0.0746 C.ar    1  UNL11      -0.0582
     19 C           5.4743   -0.8675    0.0596 C.ar    1  UNL11      -0.0615
     20 C           4.7012   -2.0089    0.0266 C.ar    1  UNL11      -0.0614
     21 C           3.3327   -1.8486    0.0094 C.ar    1  UNL11      -0.0568
     22 C           2.7476   -0.6166    0.0240 C.ar    1  UNL11      -0.0269
     23 C           1.2505   -0.5663    0.0107 C.3     1  UNL11       0.0403
     24 H          -3.4944    4.4011   -0.6848 H       1  UNL11       0.4829
     25 H          -0.5197    5.7897   -3.9753 H       1  UNL11       0.0627
     26 H           1.5253    4.8691   -4.9243 H       1  UNL11       0.0618
     27 H           2.3563    2.6916   -4.0479 H       1  UNL11       0.0618
     28 H           1.1914    1.5017   -2.3072 H       1  UNL11       0.0624
     29 H           2.2632    1.2079   -1.8971 H       1  UNL11       0.0468
     30 H           1.2342    2.6089   -1.2641 H       1  UNL11       0.0468
     31 H           2.2499    1.8928    1.0060 H       1  UNL11       0.0328
     32 H           3.4430    2.6633   -0.1650 H       1  UNL11       0.0328
     33 H           5.4946    1.3063    0.1009 H       1  UNL11       0.0620
     34 H           6.5372   -0.9582    0.0738 H       1  UNL11       0.0618
     35 H           5.1601   -3.0057    0.0145 H       1  UNL11       0.0618
     36 H           2.7487   -2.7735   -0.0167 H       1  UNL11       0.0621
     37 H           0.8461   -1.4056   -0.5969 H       1  UNL11       0.0514
     38 H           0.9670   -0.7581    1.0841 H       1  UNL11       0.0514
@<TRIPOS>BOND
     1     1     2    2
     2     2     3    1
     3     2    14   am
     4     3     4    2
     5     4     5    1
     6     5     6   am
     7     5    24    1
     8     6     7    2
     9     6     8    1
    10     8     9   ar
    11     9    10   ar
    12     9    25    1
    13    10    11   ar
    14    10    26    1
    15    11    12   ar
    16    11    27    1
    17    12    13   ar
    18    12    28    1
    19    13     3    1
    20    13     8   ar
    21    14    15    1
    22    15    16    1
    23    15    29    1
    24    15    30    1
    25    16    17    1
    26    16    31    1
    27    16    32    1
    28    17    18   ar
    29    18    19   ar
    30    18    33    1
    31    19    20   ar
    32    19    34    1
    33    20    21   ar
    34    20    35    1
    35    21    22   ar
    36    21    36    1
    37    22    23    1
    38    22    17   ar
    39    23    14    1
    40    23    37    1
    41    23    38    1
@<TRIPOS>MOLECULE
*****
 38 41 0 0 0
SMALL
GASTEIGER

@<TRIPOS>ATOM
      1 O          -0.9099    2.1160   -1.0353 O.2     1  UNL11      -0.2681
      2 C          -0.6092    0.9966   -0.5506 C.2     1  UNL11       0.2716
      3 C          -1.5800    0.0708   -0.0512 C.2     1  UNL11       0.1990
      4 N          -1.2579   -0.7774    0.9635 N.2     1  UNL11       0.0021
      5 N          -2.0707   -1.6574    1.4892 N.am    1  UNL11      -0.0351
      6 C          -3.3391   -1.7800    1.0313 C.2     1  UNL11       0.4383
      7 O          -4.1473   -2.6134    1.5114 O.2     1  UNL11      -0.2116
      8 C          -3.7700   -0.9687    0.0045 C.ar    1  UNL11       0.1009
      9 C          -5.0580   -1.0894   -0.4638 C.ar    1  UNL11      -0.0441
     10 C          -5.5108   -0.2880   -1.4903 C.ar    1  UNL11      -0.0608
     11 C          -4.6324    0.6218   -2.0162 C.ar    1  UNL11      -0.0611
     12 C          -3.3283    0.7454   -1.5434 C.ar    1  UNL11      -0.0513
     13 C          -2.8701   -0.0445   -0.5263 C.ar    1  UNL11       0.0282
     14 N           0.7730    0.6640   -0.5114 N.am    1  UNL11      -0.2915
     15 C           1.7224    1.6416   -1.0330 C.3     1  UNL11       0.0194
     16 C           2.7874    1.8209    0.0611 C.3     1  UNL11      -0.0115
     17 C           3.5199    0.5092    0.0565 C.ar    1  UNL11      -0.0412
     18 C           4.8843    0.3929    0.0746 C.ar    1  UNL11      -0.0582
     19 C           5.4743   -0.8675    0.0596 C.ar    1  UNL11      -0.0615
     20 C           4.7012   -2.0089    0.0266 C.ar    1  UNL11      -0.0614
     21 C           3.3327   -1.8486    0.0094 C.ar    1  UNL11      -0.0568
     22 C           2.7476   -0.6166    0.0240 C.ar    1  UNL11      -0.0269
     23 C           1.2505   -0.5663    0.0107 C.3     1  UNL11       0.0403
     24 H          -1.7500   -2.2740    2.2663 H       1  UNL11       0.4829
     25 H          -5.7593   -1.8189   -0.0409 H       1  UNL11       0.0627
     26 H          -6.5303   -0.3892   -1.8552 H       1  UNL11       0.0618
     27 H          -4.9347    1.2655   -2.8124 H       1  UNL11       0.0618
     28 H          -2.6808    1.4719   -1.9877 H       1  UNL11       0.0624
     29 H           2.2632    1.2079   -1.8971 H       1  UNL11       0.0468
     30 H           1.2342    2.6089   -1.2641 H       1  UNL11       0.0468
     31 H           2.2499    1.8928    1.0060 H       1  UNL11       0.0328
     32 H           3.4430    2.6633   -0.1650 H       1  UNL11       0.0328
     33 H           5.4946    1.3063    0.1009 H       1  UNL11       0.0620
     34 H           6.5372   -0.9582    0.0738 H       1  UNL11       0.0618
     35 H           5.1601   -3.0057    0.0145 H       1  UNL11       0.0618
     36 H           2.7487   -2.7735   -0.0167 H       1  UNL11       0.0621
     37 H           0.8461   -1.4056   -0.5969 H       1  UNL11       0.0514
     38 H           0.9670   -0.7581    1.0841 H       1  UNL11       0.0514
@<TRIPOS>BOND
     1     1     2    2
     2     2     3    1
     3     2    14   am
     4     3     4    2
     5     4     5    1
     6     5     6   am
     7     5    24    1
     8     6     7    2
     9     6     8    1
    10     8     9   ar
    11     9    10   ar
    12     9    25    1
    13    10    11   ar
    14    10    26    1
    15    11    12   ar
    16    11    27    1
    17    12    13   ar
    18    12    28    1
    19    13     3    1
    20    13     8   ar
    21    14    15    1
    22    15    16    1
    23    15    29    1
    24    15    30    1
    25    16    17    1
    26    16    31    1
    27    16    32    1
    28    17    18   ar
    29    18    19   ar
    30    18    33    1
    31    19    20   ar
    32    19    34    1
    33    20    21   ar
    34    20    35    1
    35    21    22   ar
    36    21    36    1
    37    22    23    1
    38    22    17   ar
    39    23    14    1
    40    23    37    1
    41    23    38    1
@<TRIPOS>MOLECULE
*****
 38 41 0 0 0
SMALL
GASTEIGER

@<TRIPOS>ATOM
      1 O          -0.9099    2.1160   -1.0353 O.2     1  UNL11      -0.2681
      2 C          -0.6092    0.9966   -0.5506 C.2     1  UNL11       0.2716
      3 C          -1.5800    0.0708   -0.0512 C.2     1  UNL11       0.1990
      4 N          -1.1825   -1.1203    0.4743 N.2     1  UNL11       0.0021
      5 N          -1.9884   -2.0316    0.9555 N.am    1  UNL11      -0.0351
      6 C          -3.3277   -1.8316    0.9579 C.2     1  UNL11       0.4383
      7 O          -4.1317   -2.6837    1.4115 O.2     1  UNL11      -0.2116
      8 C          -3.8382   -0.6577    0.4486 C.ar    1  UNL11       0.1009
      9 C          -5.1982   -0.4500    0.4491 C.ar    1  UNL11      -0.0441
     10 C          -5.7312    0.7172   -0.0553 C.ar    1  UNL11      -0.0608
     11 C          -4.8577    1.6487   -0.5506 C.ar    1  UNL11      -0.0611
     12 C          -3.4808    1.4401   -0.5520 C.ar    1  UNL11      -0.0513
     13 C          -2.9426    0.2863   -0.0542 C.ar    1  UNL11       0.0282
     14 N           0.7730    0.6640   -0.5114 N.am    1  UNL11      -0.2915
     15 C           1.7224    1.6416   -1.0330 C.3     1  UNL11       0.0194
     16 C           2.7874    1.8209    0.0611 C.3     1  UNL11      -0.0115
     17 C           3.5199    0.5092    0.0565 C.ar    1  UNL11      -0.0412
     18 C           4.8843    0.3929    0.0746 C.ar    1  UNL11      -0.0582
     19 C           5.4743   -0.8675    0.0596 C.ar    1  UNL11      -0.0615
     20 C           4.7012   -2.0089    0.0266 C.ar    1  UNL11      -0.0614
     21 C           3.3327   -1.8486    0.0094 C.ar    1  UNL11      -0.0568
     22 C           2.7476   -0.6166    0.0240 C.ar    1  UNL11      -0.0269
     23 C           1.2505   -0.5663    0.0107 C.3     1  UNL11       0.0403
     24 H          -1.6076   -2.9218    1.3422 H       1  UNL11       0.4829
     25 H          -5.8955   -1.1975    0.8463 H       1  UNL11       0.0627
     26 H          -6.8074    0.8743   -0.0514 H       1  UNL11       0.0618
     27 H          -5.2206    2.5687   -0.9523 H       1  UNL11       0.0618
     28 H          -2.8403    2.1989   -0.9501 H       1  UNL11       0.0624
     29 H           2.2632    1.2079   -1.8971 H       1  UNL11       0.0468
     30 H           1.2342    2.6089   -1.2641 H       1  UNL11       0.0468
     31 H           2.2499    1.8928    1.0060 H       1  UNL11       0.0328
     32 H           3.4430    2.6633   -0.1650 H       1  UNL11       0.0328
     33 H           5.4946    1.3063    0.1009 H       1  UNL11       0.0620
     34 H           6.5372   -0.9582    0.0738 H       1  UNL11       0.0618
     35 H           5.1601   -3.0057    0.0145 H       1  UNL11       0.0618
     36 H           2.7487   -2.7735   -0.0167 H       1  UNL11       0.0621
     37 H           0.8461   -1.4056   -0.5969 H       1  UNL11       0.0514
     38 H           0.9670   -0.7581    1.0841 H       1  UNL11       0.0514
@<TRIPOS>BOND
     1     1     2    2
     2     2     3    1
     3     2    14   am
     4     3     4    2
     5     4     5    1
     6     5     6   am
     7     5    24    1
     8     6     7    2
     9     6     8    1
    10     8     9   ar
    11     9    10   ar
    12     9    25    1
    13    10    11   ar
    14    10    26    1
    15    11    12   ar
    16    11    27    1
    17    12    13   ar
    18    12    28    1
    19    13     3    1
    20    13     8   ar
    21    14    15    1
    22    15    16    1
    23    15    29    1
    24    15    30    1
    25    16    17    1
    26    16    31    1
    27    16    32    1
    28    17    18   ar
    29    18    19   ar
    30    18    33    1
    31    19    20   ar
    32    19    34    1
    33    20    21   ar
    34    20    35    1
    35    21    22   ar
    36    21    36    1
    37    22    23    1
    38    22    17   ar
    39    23    14    1
    40    23    37    1
    41    23    38    1
@<TRIPOS>MOLECULE
*****
 38 41 0 0 0
SMALL
GASTEIGER

@<TRIPOS>ATOM
      1 O          -1.4104    0.1484   -0.0846 O.2     1  UNL11      -0.2681
      2 C          -0.6092    0.9966   -0.5506 C.2     1  UNL11       0.2716
      3 C          -1.0259    2.2496   -1.1032 C.2     1  UNL11       0.1990
      4 N          -0.2111    3.3371   -1.0238 N.2     1  UNL11       0.0021
      5 N          -0.4983    4.5228   -1.4960 N.am    1  UNL11      -0.0351
      6 C          -1.6791    4.7457   -2.1204 C.2     1  UNL11       0.4383
      7 O          -1.9889    5.8705   -2.5862 O.2     1  UNL11      -0.2116
      8 C          -2.5794    3.7118   -2.2558 C.ar    1  UNL11       0.1009
      9 C          -3.7803    3.9334   -2.8895 C.ar    1  UNL11      -0.0441
     10 C          -4.6963    2.9134   -3.0365 C.ar    1  UNL11      -0.0608
     11 C          -4.3618    1.6857   -2.5299 C.ar    1  UNL11      -0.0611
     12 C          -3.1468    1.4595   -1.8881 C.ar    1  UNL11      -0.0513
     13 C          -2.2321    2.4641   -1.7374 C.ar    1  UNL11       0.0282
     14 N           0.7730    0.6640   -0.5114 N.am    1  UNL11      -0.2915
     15 C           1.7224    1.6416   -1.0330 C.3     1  UNL11       0.0194
     16 C           2.7874    1.8209    0.0611 C.3     1  UNL11      -0.0115
     17 C           3.5199    0.5092    0.0565 C.ar    1  UNL11      -0.0412
     18 C           4.8843    0.3929    0.0746 C.ar    1  UNL11      -0.0582
     19 C           5.4743   -0.8675    0.0596 C.ar    1  UNL11      -0.0615
     20 C           4.7012   -2.0089    0.0266 C.ar    1  UNL11      -0.0614
     21 C           3.3327   -1.8486    0.0094 C.ar    1  UNL11      -0.0568
     22 C           2.7476   -0.6166    0.0240 C.ar    1  UNL11      -0.0269
     23 C           1.2505   -0.5663    0.0107 C.3     1  UNL11       0.0403
     24 H           0.1793    5.3089   -1.3964 H       1  UNL11       0.4829
     25 H          -4.0457    4.9175   -3.2943 H       1  UNL11       0.0627
     26 H          -5.6435    3.0962   -3.5387 H       1  UNL11       0.0618
     27 H          -5.0369    0.8635   -2.6184 H       1  UNL11       0.0618
     28 H          -2.9325    0.4820   -1.5098 H       1  UNL11       0.0624
     29 H           2.2632    1.2079   -1.8971 H       1  UNL11       0.0468
     30 H           1.2342    2.6089   -1.2641 H       1  UNL11       0.0468
     31 H           2.2499    1.8928    1.0060 H       1  UNL11       0.0328
     32 H           3.4430    2.6633   -0.1650 H       1  UNL11       0.0328
     33 H           5.4946    1.3063    0.1009 H       1  UNL11       0.0620
     34 H           6.5372   -0.9582    0.0738 H       1  UNL11       0.0618
     35 H           5.1601   -3.0057    0.0145 H       1  UNL11       0.0618
     36 H           2.7487   -2.7735   -0.0167 H       1  UNL11       0.0621
     37 H           0.8461   -1.4056   -0.5969 H       1  UNL11       0.0514
     38 H           0.9670   -0.7581    1.0841 H       1  UNL11       0.0514
@<TRIPOS>BOND
     1     1     2    2
     2     2     3    1
     3     2    14   am
     4     3     4    2
     5     4     5    1
     6     5     6   am
     7     5    24    1
     8     6     7    2
     9     6     8    1
    10     8     9   ar
    11     9    10   ar
    12     9    25    1
    13    10    11   ar
    14    10    26    1
    15    11    12   ar
    16    11    27    1
    17    12    13   ar
    18    12    28    1
    19    13     3    1
    20    13     8   ar
    21    14    15    1
    22    15    16    1
    23    15    29    1
    24    15    30    1
    25    16    17    1
    26    16    31    1
    27    16    32    1
    28    17    18   ar
    29    18    19   ar
    30    18    33    1
    31    19    20   ar
    32    19    34    1
    33    20    21   ar
    34    20    35    1
    35    21    22   ar
    36    21    36    1
    37    22    23    1
    38    22    17   ar
    39    23    14    1
    40    23    37    1
    41    23    38    1
@<TRIPOS>MOLECULE
*****
 38 41 0 0 0
SMALL
GASTEIGER

@<TRIPOS>ATOM
      1 O          -1.4104    0.1484   -0.0846 O.2     1  UNL11      -0.2681
      2 C          -0.6092    0.9966   -0.5506 C.2     1  UNL11       0.2716
      3 C          -1.0259    2.2496   -1.1032 C.2     1  UNL11       0.1990
      4 N          -0.3022    2.8334   -2.0973 N.2     1  UNL11       0.0021
      5 N          -0.5979    3.9732   -2.6672 N.am    1  UNL11      -0.0351
      6 C          -1.6931    4.6699   -2.2815 C.2     1  UNL11       0.4383
      7 O          -2.0083    5.7672   -2.8058 O.2     1  UNL11      -0.2116
      8 C          -2.4973    4.1687   -1.2815 C.ar    1  UNL11       0.1009
      9 C          -3.6113    4.8729   -0.8865 C.ar    1  UNL11      -0.0441
     10 C          -4.4304    4.3904    0.1121 C.ar    1  UNL11      -0.0608
     11 C          -4.0901    3.1942    0.6859 C.ar    1  UNL11      -0.0611
     12 C          -2.9628    2.4801    0.2874 C.ar    1  UNL11      -0.0513
     13 C          -2.1445    2.9500   -0.7016 C.ar    1  UNL11       0.0282
     14 N           0.7730    0.6640   -0.5114 N.am    1  UNL11      -0.2915
     15 C           1.7224    1.6416   -1.0330 C.3     1  UNL11       0.0194
     16 C           2.7874    1.8209    0.0611 C.3     1  UNL11      -0.0115
     17 C           3.5199    0.5092    0.0565 C.ar    1  UNL11      -0.0412
     18 C           4.8843    0.3929    0.0746 C.ar    1  UNL11      -0.0582
     19 C           5.4743   -0.8675    0.0596 C.ar    1  UNL11      -0.0615
     20 C           4.7012   -2.0089    0.0266 C.ar    1  UNL11      -0.0614
     21 C           3.3327   -1.8486    0.0094 C.ar    1  UNL11      -0.0568
     22 C           2.7476   -0.6166    0.0240 C.ar    1  UNL11      -0.0269
     23 C           1.2505   -0.5663    0.0107 C.3     1  UNL11       0.0403
     24 H           0.0070    4.3573   -3.4244 H       1  UNL11       0.4829
     25 H          -3.8816    5.8305   -1.3476 H       1  UNL11       0.0627
     26 H          -5.3094    4.9526    0.4189 H       1  UNL11       0.0618
     27 H          -4.6920    2.7781    1.4632 H       1  UNL11       0.0618
     28 H          -2.7401    1.5500    0.7668 H       1  UNL11       0.0624
     29 H           2.2632    1.2079   -1.8971 H       1  UNL11       0.0468
     30 H           1.2342    2.6089   -1.2641 H       1  UNL11       0.0468
     31 H           2.2499    1.8928    1.0060 H       1  UNL11       0.0328
     32 H           3.4430    2.6633   -0.1650 H       1  UNL11       0.0328
     33 H           5.4946    1.3063    0.1009 H       1  UNL11       0.0620
     34 H           6.5372   -0.9582    0.0738 H       1  UNL11       0.0618
     35 H           5.1601   -3.0057    0.0145 H       1  UNL11       0.0618
     36 H           2.7487   -2.7735   -0.0167 H       1  UNL11       0.0621
     37 H           0.8461   -1.4056   -0.5969 H       1  UNL11       0.0514
     38 H           0.9670   -0.7581    1.0841 H       1  UNL11       0.0514
@<TRIPOS>BOND
     1     1     2    2
     2     2     3    1
     3     2    14   am
     4     3     4    2
     5     4     5    1
     6     5     6   am
     7     5    24    1
     8     6     7    2
     9     6     8    1
    10     8     9   ar
    11     9    10   ar
    12     9    25    1
    13    10    11   ar
    14    10    26    1
    15    11    12   ar
    16    11    27    1
    17    12    13   ar
    18    12    28    1
    19    13     3    1
    20    13     8   ar
    21    14    15    1
    22    15    16    1
    23    15    29    1
    24    15    30    1
    25    16    17    1
    26    16    31    1
    27    16    32    1
    28    17    18   ar
    29    18    19   ar
    30    18    33    1
    31    19    20   ar
    32    19    34    1
    33    20    21   ar
    34    20    35    1
    35    21    22   ar
    36    21    36    1
    37    22    23    1
    38    22    17   ar
    39    23    14    1
    40    23    37    1
    41    23    38    1
@<TRIPOS>MOLECULE
*****
 38 41 0 0 0
SMALL
GASTEIGER

@<TRIPOS>ATOM
      1 O          -1.4104    0.1484   -0.0846 O.2     1  UNL11      -0.2681
      2 C          -0.6092    0.9966   -0.5506 C.2     1  UNL11       0.2716
      3 C          -1.0259    2.2496   -1.1032 C.2     1  UNL11       0.1990
      4 N          -0.1040    3.1167   -1.6043 N.2     1  UNL11       0.0021
      5 N          -0.3816    4.2823   -2.1294 N.am    1  UNL11      -0.0351
      6 C          -1.6632    4.7125   -2.2076 C.2     1  UNL11       0.4383
      7 O          -1.9674    5.8253   -2.7050 O.2     1  UNL11      -0.2116
      8 C          -2.6769    3.9117   -1.7290 C.ar    1  UNL11       0.1009
      9 C          -3.9806    4.3444   -1.8065 C.ar    1  UNL11      -0.0441
     10 C          -5.0110    3.5596   -1.3340 C.ar    1  UNL11      -0.0608
     11 C          -4.6831    2.3457   -0.7910 C.ar    1  UNL11      -0.0611
     12 C          -3.3641    1.9060   -0.7118 C.ar    1  UNL11      -0.0513
     13 C          -2.3356    2.6767   -1.1773 C.ar    1  UNL11       0.0282
     14 N           0.7730    0.6640   -0.5114 N.am    1  UNL11      -0.2915
     15 C           1.7224    1.6416   -1.0330 C.3     1  UNL11       0.0194
     16 C           2.7874    1.8209    0.0611 C.3     1  UNL11      -0.0115
     17 C           3.5199    0.5092    0.0565 C.ar    1  UNL11      -0.0412
     18 C           4.8843    0.3929    0.0746 C.ar    1  UNL11      -0.0582
     19 C           5.4743   -0.8675    0.0596 C.ar    1  UNL11      -0.0615
     20 C           4.7012   -2.0089    0.0266 C.ar    1  UNL11      -0.0614
     21 C           3.3327   -1.8486    0.0094 C.ar    1  UNL11      -0.0568
     22 C           2.7476   -0.6166    0.0240 C.ar    1  UNL11      -0.0269
     23 C           1.2505   -0.5663    0.0107 C.3     1  UNL11       0.0403
     24 H           0.3815    4.8925   -2.4931 H       1  UNL11       0.4829
     25 H          -4.2404    5.3169   -2.2417 H       1  UNL11       0.0627
     26 H          -6.0391    3.9084   -1.3988 H       1  UNL11       0.0618
     27 H          -5.4447    1.7011   -0.4114 H       1  UNL11       0.0618
     28 H          -3.1600    0.9493   -0.2788 H       1  UNL11       0.0624
     29 H           2.2632    1.2079   -1.8971 H       1  UNL11       0.0468
     30 H           1.2342    2.6089   -1.2641 H       1  UNL11       0.0468
     31 H           2.2499    1.8928    1.0060 H       1  UNL11       0.0328
     32 H           3.4430    2.6633   -0.1650 H       1  UNL11       0.0328
     33 H           5.4946    1.3063    0.1009 H       1  UNL11       0.0620
     34 H           6.5372   -0.9582    0.0738 H       1  UNL11       0.0618
     35 H           5.1601   -3.0057    0.0145 H       1  UNL11       0.0618
     36 H           2.7487   -2.7735   -0.0167 H       1  UNL11       0.0621
     37 H           0.8461   -1.4056   -0.5969 H       1  UNL11       0.0514
     38 H           0.9670   -0.7581    1.0841 H       1  UNL11       0.0514
@<TRIPOS>BOND
     1     1     2    2
     2     2     3    1
     3     2    14   am
     4     3     4    2
     5     4     5    1
     6     5     6   am
     7     5    24    1
     8     6     7    2
     9     6     8    1
    10     8     9   ar
    11     9    10   ar
    12     9    25    1
    13    10    11   ar
    14    10    26    1
    15    11    12   ar
    16    11    27    1
    17    12    13   ar
    18    12    28    1
    19    13     3    1
    20    13     8   ar
    21    14    15    1
    22    15    16    1
    23    15    29    1
    24    15    30    1
    25    16    17    1
    26    16    31    1
    27    16    32    1
    28    17    18   ar
    29    18    19   ar
    30    18    33    1
    31    19    20   ar
    32    19    34    1
    33    20    21   ar
    34    20    35    1
    35    21    22   ar
    36    21    36    1
    37    22    23    1
    38    22    17   ar
    39    23    14    1
    40    23    37    1
    41    23    38    1
