@<TRIPOS>MOLECULE
*****
 49 51 0 0 0
SMALL
GASTEIGER

@<TRIPOS>ATOM
      1 O           2.5276   -0.3565    0.4742 O.2     1  UNL11      -0.2687
      2 C           1.3246   -0.0559    0.2041 C.2     1  UNL11       0.2602
      3 N           1.0931    1.1193   -0.5183 N.am    1  UNL11      -0.2301
      4 N          -0.1868    1.6083   -0.8905 N.am    1  UNL11      -0.2300
      5 C          -1.3289    1.3500   -0.1103 C.2     1  UNL11       0.2637
      6 O          -2.4123    1.8304   -0.5576 O.2     1  UNL11      -0.2685
      7 C          -1.2271    0.5786    1.1239 C.ar    1  UNL11       0.0795
      8 C          -0.0273    0.0815    1.5655 C.ar    1  UNL11      -0.0460
      9 C           0.1173   -0.6577    2.7167 C.ar    1  UNL11      -0.0608
     10 C          -0.9791   -0.9253    3.4793 C.ar    1  UNL11      -0.0583
     11 C          -2.2005   -0.4556    3.0889 C.ar    1  UNL11      -0.0194
     12 C          -2.3507    0.3001    1.9137 C.ar    1  UNL11       0.1290
     13 O          -3.5942    0.7283    1.5998 O.3     1  UNL11      -0.5060
     14 C           0.2305   -0.9314    0.6477 C.ar    1  UNL11       0.0400
     15 C           0.3225   -1.6964    1.7869 C.ar    1  UNL11      -0.0495
     16 C          -0.7007   -2.5389    2.2165 C.ar    1  UNL11      -0.0592
     17 C          -1.8632   -2.6279    1.4858 C.ar    1  UNL11      -0.0353
     18 C          -1.9589   -1.8535    0.3307 C.ar    1  UNL11       0.1062
     19 S          -3.4492   -1.9812   -0.5892 S.O2    1  UNL11       0.0609
     20 O          -3.6851   -0.6159   -1.2181 O.2     1  UNL11      -0.1528
     21 O          -4.6215   -2.1941    0.3398 O.2     1  UNL11      -0.1528
     22 N          -3.4340   -3.1545   -1.7616 N.3     1  UNL11      -0.1766
     23 C          -2.9934   -4.4165   -1.3382 C.3     1  UNL11       0.0205
     24 C          -2.6185   -5.3930   -2.4056 C.3     1  UNL11      -0.0385
     25 C          -3.5017   -5.3696   -3.5990 C.3     1  UNL11      -0.0506
     26 C          -4.6457   -4.4286   -3.4549 C.3     1  UNL11      -0.0385
     27 C          -4.1902   -3.0588   -2.9276 C.3     1  UNL11       0.0205
     28 C          -0.9322   -1.0176   -0.0853 C.ar    1  UNL11      -0.0232
     29 H           1.9029    1.7054   -0.8267 H       1  UNL11       0.1731
     30 H          -0.1892    2.1579   -1.7643 H       1  UNL11       0.1731
     31 H           0.8609    0.2661    1.0010 H       1  UNL11       0.0626
     32 H           1.1030   -1.0139    2.9925 H       1  UNL11       0.0618
     33 H          -0.8381   -1.5148    4.3873 H       1  UNL11       0.0619
     34 H          -3.0461   -0.6906    3.7261 H       1  UNL11       0.0654
     35 H          -3.9991    1.2443    0.8869 H       1  UNL11       0.2922
     36 H           1.2176   -1.6403    2.3763 H       1  UNL11       0.0625
     37 H          -0.6092   -3.1284    3.1130 H       1  UNL11       0.0618
     38 H          -2.6931   -3.2561    1.7583 H       1  UNL11       0.0637
     39 H          -3.8469   -4.9006   -0.7677 H       1  UNL11       0.0444
     40 H          -2.1062   -4.3395   -0.6602 H       1  UNL11       0.0444
     41 H          -2.7066   -6.4271   -1.9512 H       1  UNL11       0.0278
     42 H          -1.5387   -5.3320   -2.6838 H       1  UNL11       0.0278
     43 H          -3.9373   -6.3688   -3.8504 H       1  UNL11       0.0266
     44 H          -2.8762   -5.1097   -4.4818 H       1  UNL11       0.0266
     45 H          -5.0313   -4.2158   -4.4980 H       1  UNL11       0.0278
     46 H          -5.5033   -4.8161   -2.8922 H       1  UNL11       0.0278
     47 H          -3.5565   -2.6608   -3.7809 H       1  UNL11       0.0444
     48 H          -5.1101   -2.4598   -2.8105 H       1  UNL11       0.0444
     49 H          -1.0351   -0.4198   -0.9948 H       1  UNL11       0.0644
@<TRIPOS>BOND
     1     1     2    2
     2     2     3   am
     3     2    14    1
     4     3     4    1
     5     3    29    1
     6     4     5   am
     7     4    30    1
     8     5     6    2
     9     5     7    1
    10     7     8   ar
    11     8     9   ar
    12     8    31    1
    13     9    10   ar
    14     9    32    1
    15    10    11   ar
    16    10    33    1
    17    11    12   ar
    18    11    34    1
    19    12    13    1
    20    12     7   ar
    21    13    35    1
    22    14    15   ar
    23    15    16   ar
    24    15    36    1
    25    16    17   ar
    26    16    37    1
    27    17    18   ar
    28    17    38    1
    29    18    19    1
    30    18    28   ar
    31    19    20    2
    32    19    21    2
    33    19    22    1
    34    22    23    1
    35    23    24    1
    36    23    39    1
    37    23    40    1
    38    24    25    1
    39    24    41    1
    40    24    42    1
    41    25    26    1
    42    25    43    1
    43    25    44    1
    44    26    27    1
    45    26    45    1
    46    26    46    1
    47    27    22    1
    48    27    47    1
    49    27    48    1
    50    28    14   ar
    51    28    49    1
@<TRIPOS>MOLECULE
*****
 49 51 0 0 0
SMALL
GASTEIGER

@<TRIPOS>ATOM
      1 O           2.1098    0.4607    1.0568 O.2     1  UNL11      -0.2687
      2 C           1.3246   -0.0559    0.2041 C.2     1  UNL11       0.2602
      3 N           1.5431    0.2391   -1.1457 N.am    1  UNL11      -0.2301
      4 N           0.7532   -0.2416   -2.2231 N.am    1  UNL11      -0.2300
      5 C           0.0911   -1.4812   -2.1546 C.2     1  UNL11       0.2637
      6 O          -0.5702   -1.8016   -3.1864 O.2     1  UNL11      -0.2685
      7 C           0.1849   -2.3089   -0.9567 C.ar    1  UNL11       0.0795
      8 C           0.9141   -1.9141    0.1361 C.ar    1  UNL11      -0.0460
      9 C           1.0391   -2.6628    1.2833 C.ar    1  UNL11      -0.0608
     10 C           0.4127   -3.8696    1.3635 C.ar    1  UNL11      -0.0583
     11 C          -0.3278   -4.3143    0.3058 C.ar    1  UNL11      -0.0194
     12 C          -0.4575   -3.5511   -0.8671 C.ar    1  UNL11       0.1290
     13 O          -1.2098   -4.0633   -1.8669 O.3     1  UNL11      -0.5060
     14 C           0.2305   -0.9314    0.6477 C.ar    1  UNL11       0.0400
     15 C           0.3225   -1.6964    1.7869 C.ar    1  UNL11      -0.0495
     16 C          -0.7007   -2.5389    2.2165 C.ar    1  UNL11      -0.0592
     17 C          -1.8632   -2.6279    1.4858 C.ar    1  UNL11      -0.0353
     18 C          -1.9589   -1.8535    0.3307 C.ar    1  UNL11       0.1062
     19 S          -3.4492   -1.9812   -0.5892 S.O2    1  UNL11       0.0609
     20 O          -4.0785   -0.5959   -0.5837 O.2     1  UNL11      -0.1528
     21 O          -4.4377   -2.8650    0.1350 O.2     1  UNL11      -0.1528
     22 N          -3.2504   -2.5113   -2.1483 N.3     1  UNL11      -0.1766
     23 C          -3.0484   -1.5027   -3.1012 C.3     1  UNL11       0.0205
     24 C          -3.2257   -1.8845   -4.5351 C.3     1  UNL11      -0.0385
     25 C          -2.7074   -3.2320   -4.8820 C.3     1  UNL11      -0.0506
     26 C          -2.0313   -3.9046   -3.7394 C.3     1  UNL11      -0.0385
     27 C          -2.8681   -3.8157   -2.4534 C.3     1  UNL11       0.0205
     28 C          -0.9322   -1.0176   -0.0853 C.ar    1  UNL11      -0.0232
     29 H           2.3430    0.8558   -1.4178 H       1  UNL11       0.1731
     30 H           0.7155    0.3960   -3.0340 H       1  UNL11       0.1731
     31 H           1.4228   -0.9746    0.1203 H       1  UNL11       0.0626
     32 H           1.6365   -2.2764    2.1009 H       1  UNL11       0.0618
     33 H           0.5285   -4.4450    2.2840 H       1  UNL11       0.0619
     34 H          -0.8106   -5.2796    0.4126 H       1  UNL11       0.0654
     35 H          -1.4746   -3.7880   -2.7572 H       1  UNL11       0.2922
     36 H           1.2176   -1.6403    2.3763 H       1  UNL11       0.0625
     37 H          -0.6092   -3.1284    3.1130 H       1  UNL11       0.0618
     38 H          -2.6931   -3.2561    1.7583 H       1  UNL11       0.0637
     39 H          -1.9710   -1.1581   -3.0080 H       1  UNL11       0.0444
     40 H          -3.7223   -0.6265   -2.9259 H       1  UNL11       0.0444
     41 H          -2.6366   -1.1371   -5.1498 H       1  UNL11       0.0278
     42 H          -4.2727   -1.7347   -4.8934 H       1  UNL11       0.0278
     43 H          -1.9760   -3.2236   -5.7283 H       1  UNL11       0.0266
     44 H          -3.5603   -3.8395   -5.2586 H       1  UNL11       0.0266
     45 H          -1.9992   -5.0107   -3.9797 H       1  UNL11       0.0278
     46 H          -0.9904   -3.6053   -3.5686 H       1  UNL11       0.0278
     47 H          -3.7769   -4.4484   -2.7024 H       1  UNL11       0.0444
     48 H          -2.2614   -4.2949   -1.6653 H       1  UNL11       0.0444
     49 H          -1.0351   -0.4198   -0.9948 H       1  UNL11       0.0644
@<TRIPOS>BOND
     1     1     2    2
     2     2     3   am
     3     2    14    1
     4     3     4    1
     5     3    29    1
     6     4     5   am
     7     4    30    1
     8     5     6    2
     9     5     7    1
    10     7     8   ar
    11     8     9   ar
    12     8    31    1
    13     9    10   ar
    14     9    32    1
    15    10    11   ar
    16    10    33    1
    17    11    12   ar
    18    11    34    1
    19    12    13    1
    20    12     7   ar
    21    13    35    1
    22    14    15   ar
    23    15    16   ar
    24    15    36    1
    25    16    17   ar
    26    16    37    1
    27    17    18   ar
    28    17    38    1
    29    18    19    1
    30    18    28   ar
    31    19    20    2
    32    19    21    2
    33    19    22    1
    34    22    23    1
    35    23    24    1
    36    23    39    1
    37    23    40    1
    38    24    25    1
    39    24    41    1
    40    24    42    1
    41    25    26    1
    42    25    43    1
    43    25    44    1
    44    26    27    1
    45    26    45    1
    46    26    46    1
    47    27    22    1
    48    27    47    1
    49    27    48    1
    50    28    14   ar
    51    28    49    1
@<TRIPOS>MOLECULE
*****
 49 51 0 0 0
SMALL
GASTEIGER

@<TRIPOS>ATOM
      1 O           2.1098    0.4607    1.0568 O.2     1  UNL11      -0.2687
      2 C           1.3246   -0.0559    0.2041 C.2     1  UNL11       0.2602
      3 N           1.5431    0.2391   -1.1457 N.am    1  UNL11      -0.2301
      4 N           0.7532   -0.2416   -2.2231 N.am    1  UNL11      -0.2300
      5 C           0.0911   -1.4812   -2.1546 C.2     1  UNL11       0.2637
      6 O           0.2526   -2.1243   -1.0753 O.2     1  UNL11      -0.2685
      7 C          -0.7148   -1.9565   -3.2742 C.ar    1  UNL11       0.0795
      8 C          -1.3807   -3.1548   -3.2246 C.ar    1  UNL11      -0.0460
      9 C          -2.1447   -3.6485   -4.2566 C.ar    1  UNL11      -0.0608
     10 C          -2.2623   -2.9249   -5.4045 C.ar    1  UNL11      -0.0583
     11 C          -1.6214   -1.7237   -5.5107 C.ar    1  UNL11      -0.0194
     12 C          -0.8407   -1.2170   -4.4578 C.ar    1  UNL11       0.1290
     13 O          -0.2408   -0.0196   -4.6437 O.3     1  UNL11      -0.5060
     14 C           0.2305   -0.9314    0.6477 C.ar    1  UNL11       0.0400
     15 C           0.3225   -1.6964    1.7869 C.ar    1  UNL11      -0.0495
     16 C          -0.7007   -2.5389    2.2165 C.ar    1  UNL11      -0.0592
     17 C          -1.8632   -2.6279    1.4858 C.ar    1  UNL11      -0.0353
     18 C          -1.9589   -1.8535    0.3307 C.ar    1  UNL11       0.1062
     19 S          -3.4492   -1.9812   -0.5892 S.O2    1  UNL11       0.0609
     20 O          -4.5729   -1.5766    0.3535 O.2     1  UNL11      -0.1528
     21 O          -3.7281   -3.4249   -0.9368 O.2     1  UNL11      -0.1528
     22 N          -3.4915   -1.0491   -1.9606 N.3     1  UNL11      -0.1766
     23 C          -3.0200   -1.6751   -3.1233 C.3     1  UNL11       0.0205
     24 C          -2.6986   -0.7893   -4.2832 C.3     1  UNL11      -0.0385
     25 C          -3.6469    0.3365   -4.4792 C.3     1  UNL11      -0.0506
     26 C          -4.7871    0.3069   -3.5233 C.3     1  UNL11      -0.0385
     27 C          -4.3119    0.0704   -2.0810 C.3     1  UNL11       0.0205
     28 C          -0.9322   -1.0176   -0.0853 C.ar    1  UNL11      -0.0232
     29 H           2.3430    0.8558   -1.4178 H       1  UNL11       0.1731
     30 H           0.7155    0.3960   -3.0340 H       1  UNL11       0.1731
     31 H          -1.3188   -3.7574   -2.3445 H       1  UNL11       0.0626
     32 H          -2.6370   -4.6063   -4.1347 H       1  UNL11       0.0618
     33 H          -2.8732   -3.3390   -6.2090 H       1  UNL11       0.0619
     34 H          -1.7432   -1.1801   -6.4412 H       1  UNL11       0.0654
     35 H           0.3353    0.5639   -4.1278 H       1  UNL11       0.2922
     36 H           1.2176   -1.6403    2.3763 H       1  UNL11       0.0625
     37 H          -0.6092   -3.1284    3.1130 H       1  UNL11       0.0618
     38 H          -2.6931   -3.2561    1.7583 H       1  UNL11       0.0637
     39 H          -3.8374   -2.3725   -3.4890 H       1  UNL11       0.0444
     40 H          -2.0971   -2.2763   -2.9248 H       1  UNL11       0.0444
     41 H          -2.7548   -1.4326   -5.2140 H       1  UNL11       0.0278
     42 H          -1.6364   -0.4449   -4.2795 H       1  UNL11       0.0278
     43 H          -4.0893    0.3726   -5.5060 H       1  UNL11       0.0266
     44 H          -3.0730    1.2858   -4.3910 H       1  UNL11       0.0266
     45 H          -5.2314    1.3482   -3.5071 H       1  UNL11       0.0278
     46 H          -5.6097   -0.3651   -3.7956 H       1  UNL11       0.0278
     47 H          -3.7291    1.0168   -1.8516 H       1  UNL11       0.0444
     48 H          -5.2277    0.0159   -1.4669 H       1  UNL11       0.0444
     49 H          -1.0351   -0.4198   -0.9948 H       1  UNL11       0.0644
@<TRIPOS>BOND
     1     1     2    2
     2     2     3   am
     3     2    14    1
     4     3     4    1
     5     3    29    1
     6     4     5   am
     7     4    30    1
     8     5     6    2
     9     5     7    1
    10     7     8   ar
    11     8     9   ar
    12     8    31    1
    13     9    10   ar
    14     9    32    1
    15    10    11   ar
    16    10    33    1
    17    11    12   ar
    18    11    34    1
    19    12    13    1
    20    12     7   ar
    21    13    35    1
    22    14    15   ar
    23    15    16   ar
    24    15    36    1
    25    16    17   ar
    26    16    37    1
    27    17    18   ar
    28    17    38    1
    29    18    19    1
    30    18    28   ar
    31    19    20    2
    32    19    21    2
    33    19    22    1
    34    22    23    1
    35    23    24    1
    36    23    39    1
    37    23    40    1
    38    24    25    1
    39    24    41    1
    40    24    42    1
    41    25    26    1
    42    25    43    1
    43    25    44    1
    44    26    27    1
    45    26    45    1
    46    26    46    1
    47    27    22    1
    48    27    47    1
    49    27    48    1
    50    28    14   ar
    51    28    49    1
@<TRIPOS>MOLECULE
*****
 49 51 0 0 0
SMALL
GASTEIGER

@<TRIPOS>ATOM
      1 O           2.5276   -0.3565    0.4742 O.2     1  UNL11      -0.2687
      2 C           1.3246   -0.0559    0.2041 C.2     1  UNL11       0.2602
      3 N           1.0931    1.1193   -0.5183 N.am    1  UNL11      -0.2301
      4 N          -0.1868    1.6083   -0.8905 N.am    1  UNL11      -0.2300
      5 C          -1.3289    1.3500   -0.1103 C.2     1  UNL11       0.2637
      6 O          -1.1296    0.6582    0.9319 O.2     1  UNL11      -0.2685
      7 C          -2.6350    1.8614   -0.5121 C.ar    1  UNL11       0.0795
      8 C          -2.9567    2.0577   -1.8311 C.ar    1  UNL11      -0.0460
      9 C          -4.1702    2.5452   -2.2580 C.ar    1  UNL11      -0.0608
     10 C          -5.1239    2.8588   -1.3375 C.ar    1  UNL11      -0.0583
     11 C          -4.8596    2.6837   -0.0092 C.ar    1  UNL11      -0.0194
     12 C          -3.6210    2.1855    0.4294 C.ar    1  UNL11       0.1290
     13 O          -3.4410    2.0408    1.7616 O.3     1  UNL11      -0.5060
     14 C           0.2305   -0.9314    0.6477 C.ar    1  UNL11       0.0400
     15 C           0.3225   -1.6964    1.7869 C.ar    1  UNL11      -0.0495
     16 C          -0.7007   -2.5389    2.2165 C.ar    1  UNL11      -0.0592
     17 C          -1.8632   -2.6279    1.4858 C.ar    1  UNL11      -0.0353
     18 C          -1.9589   -1.8535    0.3307 C.ar    1  UNL11       0.1062
     19 S          -3.4492   -1.9812   -0.5892 S.O2    1  UNL11       0.0609
     20 O          -4.5729   -1.5766    0.3535 O.2     1  UNL11      -0.1528
     21 O          -3.7281   -3.4249   -0.9368 O.2     1  UNL11      -0.1528
     22 N          -3.4915   -1.0491   -1.9606 N.3     1  UNL11      -0.1766
     23 C          -3.0200   -1.6751   -3.1233 C.3     1  UNL11       0.0205
     24 C          -2.6986   -0.7893   -4.2832 C.3     1  UNL11      -0.0385
     25 C          -3.6469    0.3365   -4.4792 C.3     1  UNL11      -0.0506
     26 C          -4.7871    0.3069   -3.5233 C.3     1  UNL11      -0.0385
     27 C          -4.3119    0.0704   -2.0810 C.3     1  UNL11       0.0205
     28 C          -0.9322   -1.0176   -0.0853 C.ar    1  UNL11      -0.0232
     29 H           1.9029    1.7054   -0.8267 H       1  UNL11       0.1731
     30 H          -0.1892    2.1579   -1.7643 H       1  UNL11       0.1731
     31 H          -2.2410    1.8253   -2.5896 H       1  UNL11       0.0626
     32 H          -4.3417    2.6713   -3.3207 H       1  UNL11       0.0618
     33 H          -6.0779    3.2449   -1.7018 H       1  UNL11       0.0619
     34 H          -5.6473    2.9447    0.6891 H       1  UNL11       0.0654
     35 H          -2.7292    1.7369    2.3443 H       1  UNL11       0.2922
     36 H           1.2176   -1.6403    2.3763 H       1  UNL11       0.0625
     37 H          -0.6092   -3.1284    3.1130 H       1  UNL11       0.0618
     38 H          -2.6931   -3.2561    1.7583 H       1  UNL11       0.0637
     39 H          -3.8374   -2.3725   -3.4890 H       1  UNL11       0.0444
     40 H          -2.0971   -2.2763   -2.9248 H       1  UNL11       0.0444
     41 H          -2.7548   -1.4326   -5.2140 H       1  UNL11       0.0278
     42 H          -1.6364   -0.4449   -4.2795 H       1  UNL11       0.0278
     43 H          -4.0893    0.3726   -5.5060 H       1  UNL11       0.0266
     44 H          -3.0730    1.2858   -4.3910 H       1  UNL11       0.0266
     45 H          -5.2314    1.3482   -3.5071 H       1  UNL11       0.0278
     46 H          -5.6097   -0.3651   -3.7956 H       1  UNL11       0.0278
     47 H          -3.7291    1.0168   -1.8516 H       1  UNL11       0.0444
     48 H          -5.2277    0.0159   -1.4669 H       1  UNL11       0.0444
     49 H          -1.0351   -0.4198   -0.9948 H       1  UNL11       0.0644
@<TRIPOS>BOND
     1     1     2    2
     2     2     3   am
     3     2    14    1
     4     3     4    1
     5     3    29    1
     6     4     5   am
     7     4    30    1
     8     5     6    2
     9     5     7    1
    10     7     8   ar
    11     8     9   ar
    12     8    31    1
    13     9    10   ar
    14     9    32    1
    15    10    11   ar
    16    10    33    1
    17    11    12   ar
    18    11    34    1
    19    12    13    1
    20    12     7   ar
    21    13    35    1
    22    14    15   ar
    23    15    16   ar
    24    15    36    1
    25    16    17   ar
    26    16    37    1
    27    17    18   ar
    28    17    38    1
    29    18    19    1
    30    18    28   ar
    31    19    20    2
    32    19    21    2
    33    19    22    1
    34    22    23    1
    35    23    24    1
    36    23    39    1
    37    23    40    1
    38    24    25    1
    39    24    41    1
    40    24    42    1
    41    25    26    1
    42    25    43    1
    43    25    44    1
    44    26    27    1
    45    26    45    1
    46    26    46    1
    47    27    22    1
    48    27    47    1
    49    27    48    1
    50    28    14   ar
    51    28    49    1
@<TRIPOS>MOLECULE
*****
 49 51 0 0 0
SMALL
GASTEIGER

@<TRIPOS>ATOM
      1 O           1.0660    1.0080   -0.4377 O.2     1  UNL11      -0.2687
      2 C           1.3246   -0.0559    0.2041 C.2     1  UNL11       0.2602
      3 N           2.6672   -0.3502    0.4639 N.am    1  UNL11      -0.2301
      4 N           3.1304   -1.5015    1.1536 N.am    1  UNL11      -0.2300
      5 C           2.4224   -2.7168    1.1156 C.2     1  UNL11       0.2637
      6 O           2.9336   -3.6643    1.7830 O.2     1  UNL11      -0.2685
      7 C           1.1886   -2.8346    0.3457 C.ar    1  UNL11       0.0795
      8 C           0.6779   -1.7766   -0.3624 C.ar    1  UNL11      -0.0460
      9 C          -0.4848   -1.8366   -1.0951 C.ar    1  UNL11      -0.0608
     10 C          -1.1880   -3.0023   -1.1355 C.ar    1  UNL11      -0.0583
     11 C          -0.7273   -4.0896   -0.4497 C.ar    1  UNL11      -0.0194
     12 C           0.4604   -4.0310    0.2992 C.ar    1  UNL11       0.1290
     13 O           0.8473   -5.1526    0.9476 O.3     1  UNL11      -0.5060
     14 C           0.2305   -0.9314    0.6477 C.ar    1  UNL11       0.0400
     15 C           0.3225   -1.6964    1.7869 C.ar    1  UNL11      -0.0495
     16 C          -0.7007   -2.5389    2.2165 C.ar    1  UNL11      -0.0592
     17 C          -1.8632   -2.6279    1.4858 C.ar    1  UNL11      -0.0353
     18 C          -1.9589   -1.8535    0.3307 C.ar    1  UNL11       0.1062
     19 S          -3.4492   -1.9812   -0.5892 S.O2    1  UNL11       0.0609
     20 O          -3.6851   -0.6159   -1.2181 O.2     1  UNL11      -0.1528
     21 O          -4.6215   -2.1941    0.3398 O.2     1  UNL11      -0.1528
     22 N          -3.4340   -3.1545   -1.7616 N.3     1  UNL11      -0.1766
     23 C          -2.6142   -2.8844   -2.8666 C.3     1  UNL11       0.0205
     24 C          -2.8380   -3.7122   -4.0906 C.3     1  UNL11      -0.0385
     25 C          -3.1305   -5.1428   -3.8211 C.3     1  UNL11      -0.0506
     26 C          -3.0569   -5.4870   -2.3751 C.3     1  UNL11      -0.0385
     27 C          -3.8185   -4.4698   -1.5107 C.3     1  UNL11       0.0205
     28 C          -0.9322   -1.0176   -0.0853 C.ar    1  UNL11      -0.0232
     29 H           3.4132    0.3088    0.1421 H       1  UNL11       0.1731
     30 H           4.0145   -1.3570    1.6666 H       1  UNL11       0.1731
     31 H           1.1949   -0.8415   -0.3613 H       1  UNL11       0.0626
     32 H          -0.8186   -0.9521   -1.6250 H       1  UNL11       0.0618
     33 H          -2.1080   -3.0238   -1.7230 H       1  UNL11       0.0619
     34 H          -1.3173   -4.9976   -0.5103 H       1  UNL11       0.0654
     35 H           1.5847   -5.4133    1.5193 H       1  UNL11       0.2922
     36 H           1.2176   -1.6403    2.3763 H       1  UNL11       0.0625
     37 H          -0.6092   -3.1284    3.1130 H       1  UNL11       0.0618
     38 H          -2.6931   -3.2561    1.7583 H       1  UNL11       0.0637
     39 H          -1.5426   -3.0875   -2.5524 H       1  UNL11       0.0444
     40 H          -2.6969   -1.8169   -3.1925 H       1  UNL11       0.0444
     41 H          -1.8770   -3.6800   -4.6897 H       1  UNL11       0.0278
     42 H          -3.5833   -3.2574   -4.7866 H       1  UNL11       0.0278
     43 H          -2.4430   -5.8461   -4.3541 H       1  UNL11       0.0266
     44 H          -4.1370   -5.3700   -4.2377 H       1  UNL11       0.0266
     45 H          -3.6253   -6.4565   -2.2372 H       1  UNL11       0.0278
     46 H          -2.0480   -5.6742   -1.9886 H       1  UNL11       0.0278
     47 H          -4.8972   -4.6350   -1.8224 H       1  UNL11       0.0444
     48 H          -3.6605   -4.7851   -0.4646 H       1  UNL11       0.0444
     49 H          -1.0351   -0.4198   -0.9948 H       1  UNL11       0.0644
@<TRIPOS>BOND
     1     1     2    2
     2     2     3   am
     3     2    14    1
     4     3     4    1
     5     3    29    1
     6     4     5   am
     7     4    30    1
     8     5     6    2
     9     5     7    1
    10     7     8   ar
    11     8     9   ar
    12     8    31    1
    13     9    10   ar
    14     9    32    1
    15    10    11   ar
    16    10    33    1
    17    11    12   ar
    18    11    34    1
    19    12    13    1
    20    12     7   ar
    21    13    35    1
    22    14    15   ar
    23    15    16   ar
    24    15    36    1
    25    16    17   ar
    26    16    37    1
    27    17    18   ar
    28    17    38    1
    29    18    19    1
    30    18    28   ar
    31    19    20    2
    32    19    21    2
    33    19    22    1
    34    22    23    1
    35    23    24    1
    36    23    39    1
    37    23    40    1
    38    24    25    1
    39    24    41    1
    40    24    42    1
    41    25    26    1
    42    25    43    1
    43    25    44    1
    44    26    27    1
    45    26    45    1
    46    26    46    1
    47    27    22    1
    48    27    47    1
    49    27    48    1
    50    28    14   ar
    51    28    49    1
@<TRIPOS>MOLECULE
*****
 49 51 0 0 0
SMALL
GASTEIGER

@<TRIPOS>ATOM
      1 O           1.4928    0.1731   -1.0328 O.2     1  UNL11      -0.2687
      2 C           1.3246   -0.0559    0.2041 C.2     1  UNL11       0.2602
      3 N           2.2075    0.5490    1.1048 N.am    1  UNL11      -0.2301
      4 N           2.1701    0.3883    2.5149 N.am    1  UNL11      -0.2300
      5 C           1.6921   -0.7944    3.1086 C.2     1  UNL11       0.2637
      6 O           1.6985   -0.8074    4.3752 O.2     1  UNL11      -0.2685
      7 C           1.2319   -1.9067    2.2840 C.ar    1  UNL11       0.0795
      8 C           1.2477   -1.8420    0.9138 C.ar    1  UNL11      -0.0460
      9 C           0.8167   -2.8600    0.0951 C.ar    1  UNL11      -0.0608
     10 C           0.3421   -4.0085    0.6526 C.ar    1  UNL11      -0.0583
     11 C           0.3029   -4.1296    2.0123 C.ar    1  UNL11      -0.0194
     12 C           0.7430   -3.0914    2.8509 C.ar    1  UNL11       0.1290
     13 O           0.6718   -3.2925    4.1860 O.3     1  UNL11      -0.5060
     14 C           0.2305   -0.9314    0.6477 C.ar    1  UNL11       0.0400
     15 C           0.3225   -1.6964    1.7869 C.ar    1  UNL11      -0.0495
     16 C          -0.7007   -2.5389    2.2165 C.ar    1  UNL11      -0.0592
     17 C          -1.8632   -2.6279    1.4858 C.ar    1  UNL11      -0.0353
     18 C          -1.9589   -1.8535    0.3307 C.ar    1  UNL11       0.1062
     19 S          -3.4492   -1.9812   -0.5892 S.O2    1  UNL11       0.0609
     20 O          -3.3111   -1.0278   -1.7669 O.2     1  UNL11      -0.1528
     21 O          -4.6096   -1.4454    0.2165 O.2     1  UNL11      -0.1528
     22 N          -3.7928   -3.5109   -1.1307 N.3     1  UNL11      -0.1766
     23 C          -3.7110   -4.5204   -0.1611 C.3     1  UNL11       0.0205
     24 C          -3.6517   -5.9289   -0.6573 C.3     1  UNL11      -0.0385
     25 C          -4.5243   -6.2070   -1.8261 C.3     1  UNL11      -0.0506
     26 C          -5.3560   -5.0373   -2.2197 C.3     1  UNL11      -0.0385
     27 C          -4.5226   -3.7481   -2.2935 C.3     1  UNL11       0.0205
     28 C          -0.9322   -1.0176   -0.0853 C.ar    1  UNL11      -0.0232
     29 H           2.9635    1.1767    0.7459 H       1  UNL11       0.1731
     30 H           2.5223    1.2040    3.0406 H       1  UNL11       0.1731
     31 H           1.6119   -0.9614    0.4308 H       1  UNL11       0.0626
     32 H           0.8624   -2.7257   -0.9793 H       1  UNL11       0.0618
     33 H           0.0050   -4.8008   -0.0186 H       1  UNL11       0.0619
     34 H          -0.0809   -5.0611    2.4138 H       1  UNL11       0.0654
     35 H           0.8883   -2.7876    4.9839 H       1  UNL11       0.2922
     36 H           1.2176   -1.6403    2.3763 H       1  UNL11       0.0625
     37 H          -0.6092   -3.1284    3.1130 H       1  UNL11       0.0618
     38 H          -2.6931   -3.2561    1.7583 H       1  UNL11       0.0637
     39 H          -4.6505   -4.4594    0.4729 H       1  UNL11       0.0444
     40 H          -2.8202   -4.3858    0.5029 H       1  UNL11       0.0444
     41 H          -4.0131   -6.5910    0.1880 H       1  UNL11       0.0278
     42 H          -2.6056   -6.2822   -0.8236 H       1  UNL11       0.0278
     43 H          -5.2279   -7.0613   -1.6634 H       1  UNL11       0.0266
     44 H          -3.8745   -6.5391   -2.6662 H       1  UNL11       0.0266
     45 H          -5.6941   -5.2164   -3.2854 H       1  UNL11       0.0278
     46 H          -6.2726   -4.8958   -1.6348 H       1  UNL11       0.0278
     47 H          -3.8255   -3.9507   -3.1659 H       1  UNL11       0.0444
     48 H          -5.2353   -2.9421   -2.5407 H       1  UNL11       0.0444
     49 H          -1.0351   -0.4198   -0.9948 H       1  UNL11       0.0644
@<TRIPOS>BOND
     1     1     2    2
     2     2     3   am
     3     2    14    1
     4     3     4    1
     5     3    29    1
     6     4     5   am
     7     4    30    1
     8     5     6    2
     9     5     7    1
    10     7     8   ar
    11     8     9   ar
    12     8    31    1
    13     9    10   ar
    14     9    32    1
    15    10    11   ar
    16    10    33    1
    17    11    12   ar
    18    11    34    1
    19    12    13    1
    20    12     7   ar
    21    13    35    1
    22    14    15   ar
    23    15    16   ar
    24    15    36    1
    25    16    17   ar
    26    16    37    1
    27    17    18   ar
    28    17    38    1
    29    18    19    1
    30    18    28   ar
    31    19    20    2
    32    19    21    2
    33    19    22    1
    34    22    23    1
    35    23    24    1
    36    23    39    1
    37    23    40    1
    38    24    25    1
    39    24    41    1
    40    24    42    1
    41    25    26    1
    42    25    43    1
    43    25    44    1
    44    26    27    1
    45    26    45    1
    46    26    46    1
    47    27    22    1
    48    27    47    1
    49    27    48    1
    50    28    14   ar
    51    28    49    1
@<TRIPOS>MOLECULE
*****
 49 51 0 0 0
SMALL
GASTEIGER

@<TRIPOS>ATOM
      1 O           2.3973    0.0114    0.8789 O.2     1  UNL11      -0.2687
      2 C           1.3246   -0.0559    0.2041 C.2     1  UNL11       0.2602
      3 N           1.2335    0.7230   -0.9542 N.am    1  UNL11      -0.2301
      4 N           0.1042    0.7771   -1.8131 N.am    1  UNL11      -0.2300
      5 C          -1.2004    0.5727   -1.3274 C.2     1  UNL11       0.2637
      6 O          -2.1194    0.6338   -2.1970 O.2     1  UNL11      -0.2685
      7 C          -1.4341    0.3130    0.0891 C.ar    1  UNL11       0.0795
      8 C          -0.4021    0.2588    0.9912 C.ar    1  UNL11      -0.0460
      9 C          -0.5716    0.0089    2.3332 C.ar    1  UNL11      -0.0608
     10 C          -1.8266   -0.2006    2.8191 C.ar    1  UNL11      -0.0583
     11 C          -2.8931   -0.1584    1.9673 C.ar    1  UNL11      -0.0194
     12 C          -2.7227    0.0972    0.5960 C.ar    1  UNL11       0.1290
     13 O          -3.8309    0.1232   -0.1781 O.3     1  UNL11      -0.5060
     14 C           0.2305   -0.9314    0.6477 C.ar    1  UNL11       0.0400
     15 C           0.3225   -1.6964    1.7869 C.ar    1  UNL11      -0.0495
     16 C          -0.7007   -2.5389    2.2165 C.ar    1  UNL11      -0.0592
     17 C          -1.8632   -2.6279    1.4858 C.ar    1  UNL11      -0.0353
     18 C          -1.9589   -1.8535    0.3307 C.ar    1  UNL11       0.1062
     19 S          -3.4492   -1.9812   -0.5892 S.O2    1  UNL11       0.0609
     20 O          -3.9532   -3.4039   -0.3968 O.2     1  UNL11      -0.1528
     21 O          -3.1638   -1.8617   -2.0681 O.2     1  UNL11      -0.1528
     22 N          -4.6232   -0.8955   -0.1485 N.3     1  UNL11      -0.1766
     23 C          -4.8847   -0.8238    1.2272 C.3     1  UNL11       0.0205
     24 C          -6.1535   -0.1495    1.6382 C.3     1  UNL11      -0.0385
     25 C          -6.4986    1.0530    0.8383 C.3     1  UNL11      -0.0506
     26 C          -5.4571    1.3987   -0.1670 C.3     1  UNL11      -0.0385
     27 C          -5.0084    0.1648   -0.9659 C.3     1  UNL11       0.0205
     28 C          -0.9322   -1.0176   -0.0853 C.ar    1  UNL11      -0.0232
     29 H           2.0424    1.3212   -1.2406 H       1  UNL11       0.1731
     30 H           0.3350    0.9786   -2.7989 H       1  UNL11       0.1731
     31 H           0.6003    0.4174    0.6570 H       1  UNL11       0.0626
     32 H           0.2997   -0.0178    2.9772 H       1  UNL11       0.0618
     33 H          -1.9343   -0.3981    3.8875 H       1  UNL11       0.0619
     34 H          -3.8744   -0.3292    2.3964 H       1  UNL11       0.0654
     35 H          -4.0283    0.2660   -1.1158 H       1  UNL11       0.2922
     36 H           1.2176   -1.6403    2.3763 H       1  UNL11       0.0625
     37 H          -0.6092   -3.1284    3.1130 H       1  UNL11       0.0618
     38 H          -2.6931   -3.2561    1.7583 H       1  UNL11       0.0637
     39 H          -4.0498   -0.2179    1.7006 H       1  UNL11       0.0444
     40 H          -4.9039   -1.8387    1.6986 H       1  UNL11       0.0444
     41 H          -6.0107    0.1965    2.7075 H       1  UNL11       0.0278
     42 H          -7.0117   -0.8596    1.7164 H       1  UNL11       0.0278
     43 H          -6.6625    1.9689    1.4592 H       1  UNL11       0.0266
     44 H          -7.4820    0.8686    0.3512 H       1  UNL11       0.0266
     45 H          -5.9497    2.0689   -0.9354 H       1  UNL11       0.0278
     46 H          -4.6019    1.9655    0.2200 H       1  UNL11       0.0278
     47 H          -5.9409   -0.1048   -1.5539 H       1  UNL11       0.0444
     48 H          -4.2084    0.5170   -1.6402 H       1  UNL11       0.0444
     49 H          -1.0351   -0.4198   -0.9948 H       1  UNL11       0.0644
@<TRIPOS>BOND
     1     1     2    2
     2     2     3   am
     3     2    14    1
     4     3     4    1
     5     3    29    1
     6     4     5   am
     7     4    30    1
     8     5     6    2
     9     5     7    1
    10     7     8   ar
    11     8     9   ar
    12     8    31    1
    13     9    10   ar
    14     9    32    1
    15    10    11   ar
    16    10    33    1
    17    11    12   ar
    18    11    34    1
    19    12    13    1
    20    12     7   ar
    21    13    35    1
    22    14    15   ar
    23    15    16   ar
    24    15    36    1
    25    16    17   ar
    26    16    37    1
    27    17    18   ar
    28    17    38    1
    29    18    19    1
    30    18    28   ar
    31    19    20    2
    32    19    21    2
    33    19    22    1
    34    22    23    1
    35    23    24    1
    36    23    39    1
    37    23    40    1
    38    24    25    1
    39    24    41    1
    40    24    42    1
    41    25    26    1
    42    25    43    1
    43    25    44    1
    44    26    27    1
    45    26    45    1
    46    26    46    1
    47    27    22    1
    48    27    47    1
    49    27    48    1
    50    28    14   ar
    51    28    49    1
@<TRIPOS>MOLECULE
*****
 49 51 0 0 0
SMALL
GASTEIGER

@<TRIPOS>ATOM
      1 O           2.1098    0.4607    1.0568 O.2     1  UNL11      -0.2687
      2 C           1.3246   -0.0559    0.2041 C.2     1  UNL11       0.2602
      3 N           1.5431    0.2391   -1.1457 N.am    1  UNL11      -0.2301
      4 N           2.5789    1.0750   -1.6398 N.am    1  UNL11      -0.2300
      5 C           3.0918    2.1405   -0.8773 C.2     1  UNL11       0.2637
      6 O           4.0042    2.8185   -1.4362 O.2     1  UNL11      -0.2685
      7 C           2.5803    2.4097    0.4624 C.ar    1  UNL11       0.0795
      8 C           1.5909    1.6425    1.0230 C.ar    1  UNL11      -0.0460
      9 C           1.0709    1.8622    2.2775 C.ar    1  UNL11      -0.0608
     10 C           1.5489    2.8949    3.0259 C.ar    1  UNL11      -0.0583
     11 C           2.5347    3.6925    2.5192 C.ar    1  UNL11      -0.0194
     12 C           3.0679    3.4700    1.2382 C.ar    1  UNL11       0.1290
     13 O           4.0424    4.3048    0.8122 O.3     1  UNL11      -0.5060
     14 C           0.2305   -0.9314    0.6477 C.ar    1  UNL11       0.0400
     15 C           0.3225   -1.6964    1.7869 C.ar    1  UNL11      -0.0495
     16 C          -0.7007   -2.5389    2.2165 C.ar    1  UNL11      -0.0592
     17 C          -1.8632   -2.6279    1.4858 C.ar    1  UNL11      -0.0353
     18 C          -1.9589   -1.8535    0.3307 C.ar    1  UNL11       0.1062
     19 S          -3.4492   -1.9812   -0.5892 S.O2    1  UNL11       0.0609
     20 O          -4.0785   -0.5959   -0.5837 O.2     1  UNL11      -0.1528
     21 O          -4.4377   -2.8650    0.1350 O.2     1  UNL11      -0.1528
     22 N          -3.2504   -2.5113   -2.1483 N.3     1  UNL11      -0.1766
     23 C          -3.3246   -3.9009   -2.3209 C.3     1  UNL11       0.0205
     24 C          -2.8013   -4.4493   -3.6089 C.3     1  UNL11      -0.0385
     25 C          -3.1090   -3.6198   -4.8014 C.3     1  UNL11      -0.0506
     26 C          -3.9592   -2.4404   -4.4832 C.3     1  UNL11      -0.0385
     27 C          -3.4390   -1.6822   -3.2517 C.3     1  UNL11       0.0205
     28 C          -0.9322   -1.0176   -0.0853 C.ar    1  UNL11      -0.0232
     29 H           0.9114   -0.1681   -1.8733 H       1  UNL11       0.1731
     30 H           2.9067    0.8237   -2.5859 H       1  UNL11       0.1731
     31 H           1.1848    0.8206    0.4742 H       1  UNL11       0.0626
     32 H           0.2885    1.2081    2.6443 H       1  UNL11       0.0618
     33 H           1.1190    3.0489    4.0176 H       1  UNL11       0.0619
     34 H           2.8870    4.5021    3.1491 H       1  UNL11       0.0654
     35 H           4.5817    4.4037    0.0135 H       1  UNL11       0.2922
     36 H           1.2176   -1.6403    2.3763 H       1  UNL11       0.0625
     37 H          -0.6092   -3.1284    3.1130 H       1  UNL11       0.0618
     38 H          -2.6931   -3.2561    1.7583 H       1  UNL11       0.0637
     39 H          -4.4220   -4.1890   -2.2899 H       1  UNL11       0.0444
     40 H          -2.7862   -4.4487   -1.5069 H       1  UNL11       0.0444
     41 H          -3.3033   -5.4524   -3.7675 H       1  UNL11       0.0278
     42 H          -1.7184   -4.7161   -3.5539 H       1  UNL11       0.0278
     43 H          -3.6327   -4.1837   -5.6131 H       1  UNL11       0.0266
     44 H          -2.1438   -3.3077   -5.2588 H       1  UNL11       0.0266
     45 H          -3.8397   -1.7072   -5.3377 H       1  UNL11       0.0278
     46 H          -5.0344   -2.6434   -4.4114 H       1  UNL11       0.0278
     47 H          -2.4456   -1.2697   -3.6135 H       1  UNL11       0.0444
     48 H          -4.1605   -0.8658   -3.0735 H       1  UNL11       0.0444
     49 H          -1.0351   -0.4198   -0.9948 H       1  UNL11       0.0644
@<TRIPOS>BOND
     1     1     2    2
     2     2     3   am
     3     2    14    1
     4     3     4    1
     5     3    29    1
     6     4     5   am
     7     4    30    1
     8     5     6    2
     9     5     7    1
    10     7     8   ar
    11     8     9   ar
    12     8    31    1
    13     9    10   ar
    14     9    32    1
    15    10    11   ar
    16    10    33    1
    17    11    12   ar
    18    11    34    1
    19    12    13    1
    20    12     7   ar
    21    13    35    1
    22    14    15   ar
    23    15    16   ar
    24    15    36    1
    25    16    17   ar
    26    16    37    1
    27    17    18   ar
    28    17    38    1
    29    18    19    1
    30    18    28   ar
    31    19    20    2
    32    19    21    2
    33    19    22    1
    34    22    23    1
    35    23    24    1
    36    23    39    1
    37    23    40    1
    38    24    25    1
    39    24    41    1
    40    24    42    1
    41    25    26    1
    42    25    43    1
    43    25    44    1
    44    26    27    1
    45    26    45    1
    46    26    46    1
    47    27    22    1
    48    27    47    1
    49    27    48    1
    50    28    14   ar
    51    28    49    1
@<TRIPOS>MOLECULE
*****
 49 51 0 0 0
SMALL
GASTEIGER

@<TRIPOS>ATOM
      1 O           1.4928    0.1731   -1.0328 O.2     1  UNL11      -0.2687
      2 C           1.3246   -0.0559    0.2041 C.2     1  UNL11       0.2602
      3 N           2.2075    0.5490    1.1048 N.am    1  UNL11      -0.2301
      4 N           3.2823    1.4032    0.7430 N.am    1  UNL11      -0.2300
      5 C           3.2288    2.2047   -0.4122 C.2     1  UNL11       0.2637
      6 O           4.2568    2.9119   -0.6308 O.2     1  UNL11      -0.2685
      7 C           2.0494    2.1932   -1.2710 C.ar    1  UNL11       0.0795
      8 C           0.9600    1.4092   -0.9878 C.ar    1  UNL11      -0.0460
      9 C          -0.1699    1.3580   -1.7708 C.ar    1  UNL11      -0.0608
     10 C          -0.2352    2.1201   -2.8977 C.ar    1  UNL11      -0.0583
     11 C           0.8199    2.9208   -3.2299 C.ar    1  UNL11      -0.0194
     12 C           1.9751    2.9752   -2.4315 C.ar    1  UNL11       0.1290
     13 O           2.9736    3.7948   -2.8307 O.3     1  UNL11      -0.5060
     14 C           0.2305   -0.9314    0.6477 C.ar    1  UNL11       0.0400
     15 C           0.3225   -1.6964    1.7869 C.ar    1  UNL11      -0.0495
     16 C          -0.7007   -2.5389    2.2165 C.ar    1  UNL11      -0.0592
     17 C          -1.8632   -2.6279    1.4858 C.ar    1  UNL11      -0.0353
     18 C          -1.9589   -1.8535    0.3307 C.ar    1  UNL11       0.1062
     19 S          -3.4492   -1.9812   -0.5892 S.O2    1  UNL11       0.0609
     20 O          -3.3111   -1.0278   -1.7669 O.2     1  UNL11      -0.1528
     21 O          -4.6096   -1.4454    0.2165 O.2     1  UNL11      -0.1528
     22 N          -3.7928   -3.5109   -1.1307 N.3     1  UNL11      -0.1766
     23 C          -4.5633   -4.2941   -0.2595 C.3     1  UNL11       0.0205
     24 C          -4.5933   -5.7649   -0.5230 C.3     1  UNL11      -0.0385
     25 C          -4.6471   -6.1317   -1.9608 C.3     1  UNL11      -0.0506
     26 C          -4.7478   -4.9481   -2.8574 C.3     1  UNL11      -0.0385
     27 C          -3.7301   -3.8609   -2.4777 C.3     1  UNL11       0.0205
     28 C          -0.9322   -1.0176   -0.0853 C.ar    1  UNL11      -0.0232
     29 H           2.0981    0.3778    2.1309 H       1  UNL11       0.1731
     30 H           4.0796    1.3764    1.3981 H       1  UNL11       0.1731
     31 H           0.9646    0.7944   -0.1139 H       1  UNL11       0.0626
     32 H          -0.9860    0.7093   -1.4745 H       1  UNL11       0.0618
     33 H          -1.1422    2.0608   -3.5026 H       1  UNL11       0.0619
     34 H           0.7253    3.5118   -4.1344 H       1  UNL11       0.0654
     35 H           3.8541    4.0368   -2.5070 H       1  UNL11       0.2922
     36 H           1.2176   -1.6403    2.3763 H       1  UNL11       0.0625
     37 H          -0.6092   -3.1284    3.1130 H       1  UNL11       0.0618
     38 H          -2.6931   -3.2561    1.7583 H       1  UNL11       0.0637
     39 H          -5.6396   -3.9455   -0.3511 H       1  UNL11       0.0444
     40 H          -4.2361   -4.1743    0.8041 H       1  UNL11       0.0444
     41 H          -5.5395   -6.1654   -0.0456 H       1  UNL11       0.0278
     42 H          -3.7865   -6.3150    0.0186 H       1  UNL11       0.0278
     43 H          -5.5043   -6.8030   -2.2175 H       1  UNL11       0.0266
     44 H          -3.7422   -6.7362   -2.1932 H       1  UNL11       0.0266
     45 H          -4.4271   -5.2873   -3.8890 H       1  UNL11       0.0278
     46 H          -5.7568   -4.5361   -2.9783 H       1  UNL11       0.0278
     47 H          -2.7363   -4.3554   -2.7141 H       1  UNL11       0.0444
     48 H          -3.9206   -3.0170   -3.1635 H       1  UNL11       0.0444
     49 H          -1.0351   -0.4198   -0.9948 H       1  UNL11       0.0644
@<TRIPOS>BOND
     1     1     2    2
     2     2     3   am
     3     2    14    1
     4     3     4    1
     5     3    29    1
     6     4     5   am
     7     4    30    1
     8     5     6    2
     9     5     7    1
    10     7     8   ar
    11     8     9   ar
    12     8    31    1
    13     9    10   ar
    14     9    32    1
    15    10    11   ar
    16    10    33    1
    17    11    12   ar
    18    11    34    1
    19    12    13    1
    20    12     7   ar
    21    13    35    1
    22    14    15   ar
    23    15    16   ar
    24    15    36    1
    25    16    17   ar
    26    16    37    1
    27    17    18   ar
    28    17    38    1
    29    18    19    1
    30    18    28   ar
    31    19    20    2
    32    19    21    2
    33    19    22    1
    34    22    23    1
    35    23    24    1
    36    23    39    1
    37    23    40    1
    38    24    25    1
    39    24    41    1
    40    24    42    1
    41    25    26    1
    42    25    43    1
    43    25    44    1
    44    26    27    1
    45    26    45    1
    46    26    46    1
    47    27    22    1
    48    27    47    1
    49    27    48    1
    50    28    14   ar
    51    28    49    1
@<TRIPOS>MOLECULE
*****
 49 51 0 0 0
SMALL
GASTEIGER

@<TRIPOS>ATOM
      1 O           1.4928    0.1731   -1.0328 O.2     1  UNL11      -0.2687
      2 C           1.3246   -0.0559    0.2041 C.2     1  UNL11       0.2602
      3 N           2.2075    0.5490    1.1048 N.am    1  UNL11      -0.2301
      4 N           2.1701    0.3883    2.5149 N.am    1  UNL11      -0.2300
      5 C           3.0880    1.0449    3.3552 C.2     1  UNL11       0.2637
      6 O           2.9571    0.8082    4.5927 O.2     1  UNL11      -0.2685
      7 C           4.1041    1.9311    2.7975 C.ar    1  UNL11       0.0795
      8 C           5.3250    2.0964    3.4008 C.ar    1  UNL11      -0.0460
      9 C           6.3105    2.9261    2.9182 C.ar    1  UNL11      -0.0608
     10 C           6.0854    3.6354    1.7775 C.ar    1  UNL11      -0.0583
     11 C           4.8878    3.5106    1.1334 C.ar    1  UNL11      -0.0194
     12 C           3.8796    2.6634    1.6240 C.ar    1  UNL11       0.1290
     13 O           2.7239    2.5962    0.9255 O.3     1  UNL11      -0.5060
     14 C           0.2305   -0.9314    0.6477 C.ar    1  UNL11       0.0400
     15 C           0.3225   -1.6964    1.7869 C.ar    1  UNL11      -0.0495
     16 C          -0.7007   -2.5389    2.2165 C.ar    1  UNL11      -0.0592
     17 C          -1.8632   -2.6279    1.4858 C.ar    1  UNL11      -0.0353
     18 C          -1.9589   -1.8535    0.3307 C.ar    1  UNL11       0.1062
     19 S          -3.4492   -1.9812   -0.5892 S.O2    1  UNL11       0.0609
     20 O          -3.3111   -1.0278   -1.7669 O.2     1  UNL11      -0.1528
     21 O          -4.6096   -1.4454    0.2165 O.2     1  UNL11      -0.1528
     22 N          -3.7928   -3.5109   -1.1307 N.3     1  UNL11      -0.1766
     23 C          -3.7110   -4.5204   -0.1611 C.3     1  UNL11       0.0205
     24 C          -3.6517   -5.9289   -0.6573 C.3     1  UNL11      -0.0385
     25 C          -4.5243   -6.2070   -1.8261 C.3     1  UNL11      -0.0506
     26 C          -5.3560   -5.0373   -2.2197 C.3     1  UNL11      -0.0385
     27 C          -4.5226   -3.7481   -2.2935 C.3     1  UNL11       0.0205
     28 C          -0.9322   -1.0176   -0.0853 C.ar    1  UNL11      -0.0232
     29 H           2.9635    1.1767    0.7459 H       1  UNL11       0.1731
     30 H           1.4203   -0.2388    2.8469 H       1  UNL11       0.1731
     31 H           5.5479    1.5603    4.2977 H       1  UNL11       0.0626
     32 H           7.2472    2.9993    3.4583 H       1  UNL11       0.0618
     33 H           6.8828    4.2876    1.4159 H       1  UNL11       0.0619
     34 H           4.7514    4.0922    0.2282 H       1  UNL11       0.0654
     35 H           1.8813    2.1251    1.0073 H       1  UNL11       0.2922
     36 H           1.2176   -1.6403    2.3763 H       1  UNL11       0.0625
     37 H          -0.6092   -3.1284    3.1130 H       1  UNL11       0.0618
     38 H          -2.6931   -3.2561    1.7583 H       1  UNL11       0.0637
     39 H          -4.6505   -4.4594    0.4729 H       1  UNL11       0.0444
     40 H          -2.8202   -4.3858    0.5029 H       1  UNL11       0.0444
     41 H          -4.0131   -6.5910    0.1880 H       1  UNL11       0.0278
     42 H          -2.6056   -6.2822   -0.8236 H       1  UNL11       0.0278
     43 H          -5.2279   -7.0613   -1.6634 H       1  UNL11       0.0266
     44 H          -3.8745   -6.5391   -2.6662 H       1  UNL11       0.0266
     45 H          -5.6941   -5.2164   -3.2854 H       1  UNL11       0.0278
     46 H          -6.2726   -4.8958   -1.6348 H       1  UNL11       0.0278
     47 H          -3.8255   -3.9507   -3.1659 H       1  UNL11       0.0444
     48 H          -5.2353   -2.9421   -2.5407 H       1  UNL11       0.0444
     49 H          -1.0351   -0.4198   -0.9948 H       1  UNL11       0.0644
@<TRIPOS>BOND
     1     1     2    2
     2     2     3   am
     3     2    14    1
     4     3     4    1
     5     3    29    1
     6     4     5   am
     7     4    30    1
     8     5     6    2
     9     5     7    1
    10     7     8   ar
    11     8     9   ar
    12     8    31    1
    13     9    10   ar
    14     9    32    1
    15    10    11   ar
    16    10    33    1
    17    11    12   ar
    18    11    34    1
    19    12    13    1
    20    12     7   ar
    21    13    35    1
    22    14    15   ar
    23    15    16   ar
    24    15    36    1
    25    16    17   ar
    26    16    37    1
    27    17    18   ar
    28    17    38    1
    29    18    19    1
    30    18    28   ar
    31    19    20    2
    32    19    21    2
    33    19    22    1
    34    22    23    1
    35    23    24    1
    36    23    39    1
    37    23    40    1
    38    24    25    1
    39    24    41    1
    40    24    42    1
    41    25    26    1
    42    25    43    1
    43    25    44    1
    44    26    27    1
    45    26    45    1
    46    26    46    1
    47    27    22    1
    48    27    47    1
    49    27    48    1
    50    28    14   ar
    51    28    49    1
@<TRIPOS>MOLECULE
*****
 49 51 0 0 0
SMALL
GASTEIGER

@<TRIPOS>ATOM
      1 O           2.1098    0.4607    1.0568 O.2     1  UNL11      -0.2687
      2 C           1.3246   -0.0559    0.2041 C.2     1  UNL11       0.2602
      3 N           1.5431    0.2391   -1.1457 N.am    1  UNL11      -0.2301
      4 N           2.5789    1.0750   -1.6398 N.am    1  UNL11      -0.2300
      5 C           3.0918    2.1405   -0.8773 C.2     1  UNL11       0.2637
      6 O           4.0042    2.8185   -1.4362 O.2     1  UNL11      -0.2685
      7 C           2.5803    2.4097    0.4624 C.ar    1  UNL11       0.0795
      8 C           3.3720    2.9594    1.4385 C.ar    1  UNL11      -0.0460
      9 C           2.9378    3.2232    2.7169 C.ar    1  UNL11      -0.0608
     10 C           1.6522    2.9305    3.0582 C.ar    1  UNL11      -0.0583
     11 C           0.8177    2.3817    2.1269 C.ar    1  UNL11      -0.0194
     12 C           1.2585    2.1116    0.8202 C.ar    1  UNL11       0.1290
     13 O           0.3685    1.5690   -0.0409 O.3     1  UNL11      -0.5060
     14 C           0.2305   -0.9314    0.6477 C.ar    1  UNL11       0.0400
     15 C           0.3225   -1.6964    1.7869 C.ar    1  UNL11      -0.0495
     16 C          -0.7007   -2.5389    2.2165 C.ar    1  UNL11      -0.0592
     17 C          -1.8632   -2.6279    1.4858 C.ar    1  UNL11      -0.0353
     18 C          -1.9589   -1.8535    0.3307 C.ar    1  UNL11       0.1062
     19 S          -3.4492   -1.9812   -0.5892 S.O2    1  UNL11       0.0609
     20 O          -3.3111   -1.0278   -1.7669 O.2     1  UNL11      -0.1528
     21 O          -4.6096   -1.4454    0.2165 O.2     1  UNL11      -0.1528
     22 N          -3.7928   -3.5109   -1.1307 N.3     1  UNL11      -0.1766
     23 C          -3.2830   -3.8244   -2.3988 C.3     1  UNL11       0.0205
     24 C          -3.8561   -5.0260   -3.0778 C.3     1  UNL11      -0.0385
     25 C          -4.1267   -6.1730   -2.1744 C.3     1  UNL11      -0.0506
     26 C          -3.6888   -5.9236   -0.7740 C.3     1  UNL11      -0.0385
     27 C          -4.1522   -4.5470   -0.2717 C.3     1  UNL11       0.0205
     28 C          -0.9322   -1.0176   -0.0853 C.ar    1  UNL11      -0.0232
     29 H           0.9114   -0.1681   -1.8733 H       1  UNL11       0.1731
     30 H           2.9067    0.8237   -2.5859 H       1  UNL11       0.1731
     31 H           4.3877    3.2066    1.2177 H       1  UNL11       0.0626
     32 H           3.6304    3.6582    3.4280 H       1  UNL11       0.0618
     33 H           1.3325    3.1483    4.0791 H       1  UNL11       0.0619
     34 H          -0.1978    2.1658    2.4407 H       1  UNL11       0.0654
     35 H           0.3733    1.2817   -0.9661 H       1  UNL11       0.2922
     36 H           1.2176   -1.6403    2.3763 H       1  UNL11       0.0625
     37 H          -0.6092   -3.1284    3.1130 H       1  UNL11       0.0618
     38 H          -2.6931   -3.2561    1.7583 H       1  UNL11       0.0637
     39 H          -2.1760   -4.0423   -2.2755 H       1  UNL11       0.0444
     40 H          -3.4040   -2.9736   -3.1157 H       1  UNL11       0.0444
     41 H          -3.0867   -5.3759   -3.8322 H       1  UNL11       0.0278
     42 H          -4.7390   -4.7792   -3.7154 H       1  UNL11       0.0278
     43 H          -3.6342   -7.1229   -2.5006 H       1  UNL11       0.0266
     44 H          -5.2161   -6.3952   -2.2213 H       1  UNL11       0.0266
     45 H          -4.2407   -6.6639   -0.1188 H       1  UNL11       0.0278
     46 H          -2.6224   -6.0893   -0.5799 H       1  UNL11       0.0278
     47 H          -5.2808   -4.6609   -0.2364 H       1  UNL11       0.0444
     48 H          -3.7372   -4.4422    0.7459 H       1  UNL11       0.0444
     49 H          -1.0351   -0.4198   -0.9948 H       1  UNL11       0.0644
@<TRIPOS>BOND
     1     1     2    2
     2     2     3   am
     3     2    14    1
     4     3     4    1
     5     3    29    1
     6     4     5   am
     7     4    30    1
     8     5     6    2
     9     5     7    1
    10     7     8   ar
    11     8     9   ar
    12     8    31    1
    13     9    10   ar
    14     9    32    1
    15    10    11   ar
    16    10    33    1
    17    11    12   ar
    18    11    34    1
    19    12    13    1
    20    12     7   ar
    21    13    35    1
    22    14    15   ar
    23    15    16   ar
    24    15    36    1
    25    16    17   ar
    26    16    37    1
    27    17    18   ar
    28    17    38    1
    29    18    19    1
    30    18    28   ar
    31    19    20    2
    32    19    21    2
    33    19    22    1
    34    22    23    1
    35    23    24    1
    36    23    39    1
    37    23    40    1
    38    24    25    1
    39    24    41    1
    40    24    42    1
    41    25    26    1
    42    25    43    1
    43    25    44    1
    44    26    27    1
    45    26    45    1
    46    26    46    1
    47    27    22    1
    48    27    47    1
    49    27    48    1
    50    28    14   ar
    51    28    49    1
@<TRIPOS>MOLECULE
*****
 49 51 0 0 0
SMALL
GASTEIGER

@<TRIPOS>ATOM
      1 O           1.0660    1.0080   -0.4377 O.2     1  UNL11      -0.2687
      2 C           1.3246   -0.0559    0.2041 C.2     1  UNL11       0.2602
      3 N           2.6672   -0.3502    0.4639 N.am    1  UNL11      -0.2301
      4 N           3.7691    0.4512    0.0645 N.am    1  UNL11      -0.2300
      5 C           3.7188    1.2466   -1.0951 C.2     1  UNL11       0.2637
      6 O           4.7713    1.9041   -1.3487 O.2     1  UNL11      -0.2685
      7 C           2.5155    1.2837   -1.9195 C.ar    1  UNL11       0.0795
      8 C           1.6686    0.2081   -2.0063 C.ar    1  UNL11      -0.0460
      9 C           0.5284    0.1925   -2.7757 C.ar    1  UNL11      -0.0608
     10 C           0.1997    1.2961   -3.5030 C.ar    1  UNL11      -0.0583
     11 C           1.0059    2.3974   -3.4553 C.ar    1  UNL11      -0.0194
     12 C           2.1709    2.4160   -2.6697 C.ar    1  UNL11       0.1290
     13 O           2.9127    3.5464   -2.6773 O.3     1  UNL11      -0.5060
     14 C           0.2305   -0.9314    0.6477 C.ar    1  UNL11       0.0400
     15 C           0.3225   -1.6964    1.7869 C.ar    1  UNL11      -0.0495
     16 C          -0.7007   -2.5389    2.2165 C.ar    1  UNL11      -0.0592
     17 C          -1.8632   -2.6279    1.4858 C.ar    1  UNL11      -0.0353
     18 C          -1.9589   -1.8535    0.3307 C.ar    1  UNL11       0.1062
     19 S          -3.4492   -1.9812   -0.5892 S.O2    1  UNL11       0.0609
     20 O          -3.6851   -0.6159   -1.2181 O.2     1  UNL11      -0.1528
     21 O          -4.6215   -2.1941    0.3398 O.2     1  UNL11      -0.1528
     22 N          -3.4340   -3.1545   -1.7616 N.3     1  UNL11      -0.1766
     23 C          -2.9911   -2.7327   -3.0233 C.3     1  UNL11       0.0205
     24 C          -3.2958   -3.6294   -4.1794 C.3     1  UNL11      -0.0385
     25 C          -3.1642   -5.0789   -3.8855 C.3     1  UNL11      -0.0506
     26 C          -2.6673   -5.3483   -2.5088 C.3     1  UNL11      -0.0385
     27 C          -3.4211   -4.5146   -1.4606 C.3     1  UNL11       0.0205
     28 C          -0.9322   -1.0176   -0.0853 C.ar    1  UNL11      -0.0232
     29 H           2.9142   -1.2213    0.9877 H       1  UNL11       0.1731
     30 H           4.5830    0.3920    0.6966 H       1  UNL11       0.1731
     31 H           1.8846   -0.6802   -1.4532 H       1  UNL11       0.0626
     32 H          -0.0851   -0.7008   -2.7884 H       1  UNL11       0.0618
     33 H          -0.7094    1.2581   -4.1064 H       1  UNL11       0.0619
     34 H           0.7060    3.2544   -4.0485 H       1  UNL11       0.0654
     35 H           3.7317    3.8507   -2.2587 H       1  UNL11       0.2922
     36 H           1.2176   -1.6403    2.3763 H       1  UNL11       0.0625
     37 H          -0.6092   -3.1284    3.1130 H       1  UNL11       0.0618
     38 H          -2.6931   -3.2561    1.7583 H       1  UNL11       0.0637
     39 H          -1.8590   -2.6639   -2.9804 H       1  UNL11       0.0444
     40 H          -3.4023   -1.7270   -3.2917 H       1  UNL11       0.0444
     41 H          -2.5422   -3.3884   -4.9903 H       1  UNL11       0.0278
     42 H          -4.2724   -3.3885   -4.6644 H       1  UNL11       0.0278
     43 H          -2.4762   -5.6148   -4.5861 H       1  UNL11       0.0266
     44 H          -4.1566   -5.5532   -4.0546 H       1  UNL11       0.0266
     45 H          -2.9372   -6.4205   -2.2644 H       1  UNL11       0.0278
     46 H          -1.5807   -5.2767   -2.3804 H       1  UNL11       0.0278
     47 H          -4.4711   -4.9426   -1.5091 H       1  UNL11       0.0444
     48 H          -2.9471   -4.7489   -0.4915 H       1  UNL11       0.0444
     49 H          -1.0351   -0.4198   -0.9948 H       1  UNL11       0.0644
@<TRIPOS>BOND
     1     1     2    2
     2     2     3   am
     3     2    14    1
     4     3     4    1
     5     3    29    1
     6     4     5   am
     7     4    30    1
     8     5     6    2
     9     5     7    1
    10     7     8   ar
    11     8     9   ar
    12     8    31    1
    13     9    10   ar
    14     9    32    1
    15    10    11   ar
    16    10    33    1
    17    11    12   ar
    18    11    34    1
    19    12    13    1
    20    12     7   ar
    21    13    35    1
    22    14    15   ar
    23    15    16   ar
    24    15    36    1
    25    16    17   ar
    26    16    37    1
    27    17    18   ar
    28    17    38    1
    29    18    19    1
    30    18    28   ar
    31    19    20    2
    32    19    21    2
    33    19    22    1
    34    22    23    1
    35    23    24    1
    36    23    39    1
    37    23    40    1
    38    24    25    1
    39    24    41    1
    40    24    42    1
    41    25    26    1
    42    25    43    1
    43    25    44    1
    44    26    27    1
    45    26    45    1
    46    26    46    1
    47    27    22    1
    48    27    47    1
    49    27    48    1
    50    28    14   ar
    51    28    49    1
@<TRIPOS>MOLECULE
*****
 49 51 0 0 0
SMALL
GASTEIGER

@<TRIPOS>ATOM
      1 O           2.5276   -0.3565    0.4742 O.2     1  UNL11      -0.2687
      2 C           1.3246   -0.0559    0.2041 C.2     1  UNL11       0.2602
      3 N           1.0931    1.1193   -0.5183 N.am    1  UNL11      -0.2301
      4 N          -0.1868    1.6083   -0.8905 N.am    1  UNL11      -0.2300
      5 C          -0.4371    2.9861   -1.0277 C.2     1  UNL11       0.2637
      6 O           0.5516    3.7434   -0.7965 O.2     1  UNL11      -0.2685
      7 C          -1.7605    3.4668   -1.4101 C.ar    1  UNL11       0.0795
      8 C          -2.8997    2.7753   -1.0845 C.ar    1  UNL11      -0.0460
      9 C          -4.1672    3.1834   -1.4298 C.ar    1  UNL11      -0.0608
     10 C          -4.3269    4.3370   -2.1361 C.ar    1  UNL11      -0.0583
     11 C          -3.2281    5.0675   -2.4881 C.ar    1  UNL11      -0.0194
     12 C          -1.9323    4.6530   -2.1362 C.ar    1  UNL11       0.1290
     13 O          -0.8988    5.4346   -2.5224 O.3     1  UNL11      -0.5060
     14 C           0.2305   -0.9314    0.6477 C.ar    1  UNL11       0.0400
     15 C           0.3225   -1.6964    1.7869 C.ar    1  UNL11      -0.0495
     16 C          -0.7007   -2.5389    2.2165 C.ar    1  UNL11      -0.0592
     17 C          -1.8632   -2.6279    1.4858 C.ar    1  UNL11      -0.0353
     18 C          -1.9589   -1.8535    0.3307 C.ar    1  UNL11       0.1062
     19 S          -3.4492   -1.9812   -0.5892 S.O2    1  UNL11       0.0609
     20 O          -3.0543   -2.4313   -1.9880 O.2     1  UNL11      -0.1528
     21 O          -4.0683   -0.6157   -0.7755 O.2     1  UNL11      -0.1528
     22 N          -4.5650   -3.0271    0.0530 N.3     1  UNL11      -0.1766
     23 C          -5.4713   -2.4534    0.9560 C.3     1  UNL11       0.0205
     24 C          -6.2450   -3.3927    1.8235 C.3     1  UNL11      -0.0385
     25 C          -6.6906   -4.6344    1.1419 C.3     1  UNL11      -0.0506
     26 C          -6.3477   -4.6556   -0.3061 C.3     1  UNL11      -0.0385
     27 C          -4.8879   -4.2411   -0.5492 C.3     1  UNL11       0.0205
     28 C          -0.9322   -1.0176   -0.0853 C.ar    1  UNL11      -0.0232
     29 H           1.9029    1.7054   -0.8267 H       1  UNL11       0.1731
     30 H          -0.8901    0.8690   -1.0473 H       1  UNL11       0.1731
     31 H          -2.8247    1.8649   -0.5303 H       1  UNL11       0.0626
     32 H          -5.0142    2.5759   -1.1332 H       1  UNL11       0.0618
     33 H          -5.3428    4.6385   -2.3989 H       1  UNL11       0.0619
     34 H          -3.4010    5.9798   -3.0486 H       1  UNL11       0.0654
     35 H           0.0658    5.4154   -2.4352 H       1  UNL11       0.2922
     36 H           1.2176   -1.6403    2.3763 H       1  UNL11       0.0625
     37 H          -0.6092   -3.1284    3.1130 H       1  UNL11       0.0618
     38 H          -2.6931   -3.2561    1.7583 H       1  UNL11       0.0637
     39 H          -6.2469   -1.8907    0.3476 H       1  UNL11       0.0444
     40 H          -4.9664   -1.7334    1.6484 H       1  UNL11       0.0444
     41 H          -7.1801   -2.8434    2.1511 H       1  UNL11       0.0278
     42 H          -5.7290   -3.6089    2.7899 H       1  UNL11       0.0278
     43 H          -7.7929   -4.8108    1.2137 H       1  UNL11       0.0266
     44 H          -6.2362   -5.4988    1.6753 H       1  UNL11       0.0266
     45 H          -6.3938   -5.7364   -0.6404 H       1  UNL11       0.0278
     46 H          -7.0393   -4.1106   -0.9596 H       1  UNL11       0.0278
     47 H          -4.3044   -5.0894   -0.0718 H       1  UNL11       0.0444
     48 H          -4.7530   -4.2412   -1.6449 H       1  UNL11       0.0444
     49 H          -1.0351   -0.4198   -0.9948 H       1  UNL11       0.0644
@<TRIPOS>BOND
     1     1     2    2
     2     2     3   am
     3     2    14    1
     4     3     4    1
     5     3    29    1
     6     4     5   am
     7     4    30    1
     8     5     6    2
     9     5     7    1
    10     7     8   ar
    11     8     9   ar
    12     8    31    1
    13     9    10   ar
    14     9    32    1
    15    10    11   ar
    16    10    33    1
    17    11    12   ar
    18    11    34    1
    19    12    13    1
    20    12     7   ar
    21    13    35    1
    22    14    15   ar
    23    15    16   ar
    24    15    36    1
    25    16    17   ar
    26    16    37    1
    27    17    18   ar
    28    17    38    1
    29    18    19    1
    30    18    28   ar
    31    19    20    2
    32    19    21    2
    33    19    22    1
    34    22    23    1
    35    23    24    1
    36    23    39    1
    37    23    40    1
    38    24    25    1
    39    24    41    1
    40    24    42    1
    41    25    26    1
    42    25    43    1
    43    25    44    1
    44    26    27    1
    45    26    45    1
    46    26    46    1
    47    27    22    1
    48    27    47    1
    49    27    48    1
    50    28    14   ar
    51    28    49    1
@<TRIPOS>MOLECULE
*****
 49 51 0 0 0
SMALL
GASTEIGER

@<TRIPOS>ATOM
      1 O           2.3973    0.0114    0.8789 O.2     1  UNL11      -0.2687
      2 C           1.3246   -0.0559    0.2041 C.2     1  UNL11       0.2602
      3 N           1.2335    0.7230   -0.9542 N.am    1  UNL11      -0.2301
      4 N           0.1042    0.7771   -1.8131 N.am    1  UNL11      -0.2300
      5 C          -0.7580   -0.3243   -1.9655 C.2     1  UNL11       0.2637
      6 O          -1.7208   -0.1530   -2.7706 O.2     1  UNL11      -0.2685
      7 C          -0.5236   -1.5599   -1.2258 C.ar    1  UNL11       0.0795
      8 C          -1.5563   -2.3799   -0.8479 C.ar    1  UNL11      -0.0460
      9 C          -1.3861   -3.5489   -0.1430 C.ar    1  UNL11      -0.0608
     10 C          -0.1296   -3.9362    0.2125 C.ar    1  UNL11      -0.0583
     11 C           0.9376   -3.1591   -0.1369 C.ar    1  UNL11      -0.0194
     12 C           0.7664   -1.9648   -0.8574 C.ar    1  UNL11       0.1290
     13 O           1.8754   -1.2550   -1.1646 O.3     1  UNL11      -0.5060
     14 C           0.2305   -0.9314    0.6477 C.ar    1  UNL11       0.0400
     15 C           0.3225   -1.6964    1.7869 C.ar    1  UNL11      -0.0495
     16 C          -0.7007   -2.5389    2.2165 C.ar    1  UNL11      -0.0592
     17 C          -1.8632   -2.6279    1.4858 C.ar    1  UNL11      -0.0353
     18 C          -1.9589   -1.8535    0.3307 C.ar    1  UNL11       0.1062
     19 S          -3.4492   -1.9812   -0.5892 S.O2    1  UNL11       0.0609
     20 O          -3.0543   -2.4313   -1.9880 O.2     1  UNL11      -0.1528
     21 O          -4.0683   -0.6157   -0.7755 O.2     1  UNL11      -0.1528
     22 N          -4.5650   -3.0271    0.0530 N.3     1  UNL11      -0.1766
     23 C          -5.4713   -2.4534    0.9560 C.3     1  UNL11       0.0205
     24 C          -6.2450   -3.3927    1.8235 C.3     1  UNL11      -0.0385
     25 C          -6.6906   -4.6344    1.1419 C.3     1  UNL11      -0.0506
     26 C          -6.3477   -4.6556   -0.3061 C.3     1  UNL11      -0.0385
     27 C          -4.8879   -4.2411   -0.5492 C.3     1  UNL11       0.0205
     28 C          -0.9322   -1.0176   -0.0853 C.ar    1  UNL11      -0.0232
     29 H           2.0424    1.3212   -1.2406 H       1  UNL11       0.1731
     30 H          -0.0141    1.6820   -2.2956 H       1  UNL11       0.1731
     31 H          -2.5598   -2.1180   -1.1047 H       1  UNL11       0.0626
     32 H          -2.2580   -4.1379    0.1169 H       1  UNL11       0.0618
     33 H          -0.0213   -4.8671    0.7725 H       1  UNL11       0.0619
     34 H           1.9200   -3.5055    0.1650 H       1  UNL11       0.0654
     35 H           2.0726   -0.4286   -1.6303 H       1  UNL11       0.2922
     36 H           1.2176   -1.6403    2.3763 H       1  UNL11       0.0625
     37 H          -0.6092   -3.1284    3.1130 H       1  UNL11       0.0618
     38 H          -2.6931   -3.2561    1.7583 H       1  UNL11       0.0637
     39 H          -6.2469   -1.8907    0.3476 H       1  UNL11       0.0444
     40 H          -4.9664   -1.7334    1.6484 H       1  UNL11       0.0444
     41 H          -7.1801   -2.8434    2.1511 H       1  UNL11       0.0278
     42 H          -5.7290   -3.6089    2.7899 H       1  UNL11       0.0278
     43 H          -7.7929   -4.8108    1.2137 H       1  UNL11       0.0266
     44 H          -6.2362   -5.4988    1.6753 H       1  UNL11       0.0266
     45 H          -6.3938   -5.7364   -0.6404 H       1  UNL11       0.0278
     46 H          -7.0393   -4.1106   -0.9596 H       1  UNL11       0.0278
     47 H          -4.3044   -5.0894   -0.0718 H       1  UNL11       0.0444
     48 H          -4.7530   -4.2412   -1.6449 H       1  UNL11       0.0444
     49 H          -1.0351   -0.4198   -0.9948 H       1  UNL11       0.0644
@<TRIPOS>BOND
     1     1     2    2
     2     2     3   am
     3     2    14    1
     4     3     4    1
     5     3    29    1
     6     4     5   am
     7     4    30    1
     8     5     6    2
     9     5     7    1
    10     7     8   ar
    11     8     9   ar
    12     8    31    1
    13     9    10   ar
    14     9    32    1
    15    10    11   ar
    16    10    33    1
    17    11    12   ar
    18    11    34    1
    19    12    13    1
    20    12     7   ar
    21    13    35    1
    22    14    15   ar
    23    15    16   ar
    24    15    36    1
    25    16    17   ar
    26    16    37    1
    27    17    18   ar
    28    17    38    1
    29    18    19    1
    30    18    28   ar
    31    19    20    2
    32    19    21    2
    33    19    22    1
    34    22    23    1
    35    23    24    1
    36    23    39    1
    37    23    40    1
    38    24    25    1
    39    24    41    1
    40    24    42    1
    41    25    26    1
    42    25    43    1
    43    25    44    1
    44    26    27    1
    45    26    45    1
    46    26    46    1
    47    27    22    1
    48    27    47    1
    49    27    48    1
    50    28    14   ar
    51    28    49    1
@<TRIPOS>MOLECULE
*****
 49 51 0 0 0
SMALL
GASTEIGER

@<TRIPOS>ATOM
      1 O           2.5276   -0.3565    0.4742 O.2     1  UNL11      -0.2687
      2 C           1.3246   -0.0559    0.2041 C.2     1  UNL11       0.2602
      3 N           1.0931    1.1193   -0.5183 N.am    1  UNL11      -0.2301
      4 N          -0.1868    1.6083   -0.8905 N.am    1  UNL11      -0.2300
      5 C          -0.4371    2.9861   -1.0277 C.2     1  UNL11       0.2637
      6 O           0.5516    3.7434   -0.7965 O.2     1  UNL11      -0.2685
      7 C          -1.7605    3.4668   -1.4101 C.ar    1  UNL11       0.0795
      8 C          -2.8997    2.7753   -1.0845 C.ar    1  UNL11      -0.0460
      9 C          -4.1672    3.1834   -1.4298 C.ar    1  UNL11      -0.0608
     10 C          -4.3269    4.3370   -2.1361 C.ar    1  UNL11      -0.0583
     11 C          -3.2281    5.0675   -2.4881 C.ar    1  UNL11      -0.0194
     12 C          -1.9323    4.6530   -2.1362 C.ar    1  UNL11       0.1290
     13 O          -0.8988    5.4346   -2.5224 O.3     1  UNL11      -0.5060
     14 C           0.2305   -0.9314    0.6477 C.ar    1  UNL11       0.0400
     15 C           0.3225   -1.6964    1.7869 C.ar    1  UNL11      -0.0495
     16 C          -0.7007   -2.5389    2.2165 C.ar    1  UNL11      -0.0592
     17 C          -1.8632   -2.6279    1.4858 C.ar    1  UNL11      -0.0353
     18 C          -1.9589   -1.8535    0.3307 C.ar    1  UNL11       0.1062
     19 S          -3.4492   -1.9812   -0.5892 S.O2    1  UNL11       0.0609
     20 O          -3.9532   -3.4039   -0.3968 O.2     1  UNL11      -0.1528
     21 O          -3.1638   -1.8617   -2.0681 O.2     1  UNL11      -0.1528
     22 N          -4.6232   -0.8955   -0.1485 N.3     1  UNL11      -0.1766
     23 C          -4.6000    0.3235   -0.8411 C.3     1  UNL11       0.0205
     24 C          -5.3814    1.4510   -0.2480 C.3     1  UNL11      -0.0385
     25 C          -6.6845    1.0533    0.3424 C.3     1  UNL11      -0.0506
     26 C          -6.9930   -0.3895    0.1470 C.3     1  UNL11      -0.0385
     27 C          -5.7922   -1.2795    0.5047 C.3     1  UNL11       0.0205
     28 C          -0.9322   -1.0176   -0.0853 C.ar    1  UNL11      -0.0232
     29 H           1.9029    1.7054   -0.8267 H       1  UNL11       0.1731
     30 H          -0.8901    0.8690   -1.0473 H       1  UNL11       0.1731
     31 H          -2.8247    1.8649   -0.5303 H       1  UNL11       0.0626
     32 H          -5.0142    2.5759   -1.1332 H       1  UNL11       0.0618
     33 H          -5.3428    4.6385   -2.3989 H       1  UNL11       0.0619
     34 H          -3.4010    5.9798   -3.0486 H       1  UNL11       0.0654
     35 H           0.0658    5.4154   -2.4352 H       1  UNL11       0.2922
     36 H           1.2176   -1.6403    2.3763 H       1  UNL11       0.0625
     37 H          -0.6092   -3.1284    3.1130 H       1  UNL11       0.0618
     38 H          -2.6931   -3.2561    1.7583 H       1  UNL11       0.0637
     39 H          -5.0556    0.1415   -1.8646 H       1  UNL11       0.0444
     40 H          -3.5560    0.7039   -0.9750 H       1  UNL11       0.0444
     41 H          -5.6087    2.1729   -1.0910 H       1  UNL11       0.0278
     42 H          -4.7752    2.0702    0.4564 H       1  UNL11       0.0278
     43 H          -7.5530    1.6260   -0.0685 H       1  UNL11       0.0266
     44 H          -6.6646    1.3173    1.4232 H       1  UNL11       0.0266
     45 H          -7.7847   -0.6638    0.9086 H       1  UNL11       0.0278
     46 H          -7.4154   -0.6503   -0.8307 H       1  UNL11       0.0278
     47 H          -5.6912   -1.1247    1.6244 H       1  UNL11       0.0444
     48 H          -6.1058   -2.3137    0.2791 H       1  UNL11       0.0444
     49 H          -1.0351   -0.4198   -0.9948 H       1  UNL11       0.0644
@<TRIPOS>BOND
     1     1     2    2
     2     2     3   am
     3     2    14    1
     4     3     4    1
     5     3    29    1
     6     4     5   am
     7     4    30    1
     8     5     6    2
     9     5     7    1
    10     7     8   ar
    11     8     9   ar
    12     8    31    1
    13     9    10   ar
    14     9    32    1
    15    10    11   ar
    16    10    33    1
    17    11    12   ar
    18    11    34    1
    19    12    13    1
    20    12     7   ar
    21    13    35    1
    22    14    15   ar
    23    15    16   ar
    24    15    36    1
    25    16    17   ar
    26    16    37    1
    27    17    18   ar
    28    17    38    1
    29    18    19    1
    30    18    28   ar
    31    19    20    2
    32    19    21    2
    33    19    22    1
    34    22    23    1
    35    23    24    1
    36    23    39    1
    37    23    40    1
    38    24    25    1
    39    24    41    1
    40    24    42    1
    41    25    26    1
    42    25    43    1
    43    25    44    1
    44    26    27    1
    45    26    45    1
    46    26    46    1
    47    27    22    1
    48    27    47    1
    49    27    48    1
    50    28    14   ar
    51    28    49    1
@<TRIPOS>MOLECULE
*****
 49 51 0 0 0
SMALL
GASTEIGER

@<TRIPOS>ATOM
      1 O           1.4928    0.1731   -1.0328 O.2     1  UNL11      -0.2687
      2 C           1.3246   -0.0559    0.2041 C.2     1  UNL11       0.2602
      3 N           2.2075    0.5490    1.1048 N.am    1  UNL11      -0.2301
      4 N           3.2823    1.4032    0.7430 N.am    1  UNL11      -0.2300
      5 C           3.9497    1.2656   -0.4881 C.2     1  UNL11       0.2637
      6 O           4.8992    2.0805   -0.6853 O.2     1  UNL11      -0.2685
      7 C           3.5419    0.2418   -1.4443 C.ar    1  UNL11       0.0795
      8 C           3.6857    0.4214   -2.7967 C.ar    1  UNL11      -0.0460
      9 C           3.3087   -0.5099   -3.7363 C.ar    1  UNL11      -0.0608
     10 C           2.7580   -1.6860   -3.3258 C.ar    1  UNL11      -0.0583
     11 C           2.5905   -1.9202   -1.9909 C.ar    1  UNL11      -0.0194
     12 C           2.9753   -0.9707   -1.0290 C.ar    1  UNL11       0.1290
     13 O           2.7763   -1.2816    0.2717 O.3     1  UNL11      -0.5060
     14 C           0.2305   -0.9314    0.6477 C.ar    1  UNL11       0.0400
     15 C           0.3225   -1.6964    1.7869 C.ar    1  UNL11      -0.0495
     16 C          -0.7007   -2.5389    2.2165 C.ar    1  UNL11      -0.0592
     17 C          -1.8632   -2.6279    1.4858 C.ar    1  UNL11      -0.0353
     18 C          -1.9589   -1.8535    0.3307 C.ar    1  UNL11       0.1062
     19 S          -3.4492   -1.9812   -0.5892 S.O2    1  UNL11       0.0609
     20 O          -3.0543   -2.4313   -1.9880 O.2     1  UNL11      -0.1528
     21 O          -4.0683   -0.6157   -0.7755 O.2     1  UNL11      -0.1528
     22 N          -4.5650   -3.0271    0.0530 N.3     1  UNL11      -0.1766
     23 C          -4.0705   -4.2952    0.3900 C.3     1  UNL11       0.0205
     24 C          -5.0798   -5.3723    0.6238 C.3     1  UNL11      -0.0385
     25 C          -6.2990   -4.9273    1.3452 C.3     1  UNL11      -0.0506
     26 C          -6.2331   -3.5027    1.7706 C.3     1  UNL11      -0.0385
     27 C          -5.7564   -2.5914    0.6286 C.3     1  UNL11       0.0205
     28 C          -0.9322   -1.0176   -0.0853 C.ar    1  UNL11      -0.0232
     29 H           2.0981    0.3778    2.1309 H       1  UNL11       0.1731
     30 H           3.5122    2.1144    1.4550 H       1  UNL11       0.1731
     31 H           4.1134    1.3280   -3.1666 H       1  UNL11       0.0626
     32 H           3.4566   -0.2868   -4.7865 H       1  UNL11       0.0618
     33 H           2.4661   -2.4079   -4.0910 H       1  UNL11       0.0619
     34 H           2.1497   -2.8699   -1.7080 H       1  UNL11       0.0654
     35 H           2.9299   -0.8529    1.1268 H       1  UNL11       0.2922
     36 H           1.2176   -1.6403    2.3763 H       1  UNL11       0.0625
     37 H          -0.6092   -3.1284    3.1130 H       1  UNL11       0.0618
     38 H          -2.6931   -3.2561    1.7583 H       1  UNL11       0.0637
     39 H          -3.5041   -4.1901    1.3680 H       1  UNL11       0.0444
     40 H          -3.3705   -4.6876   -0.3901 H       1  UNL11       0.0444
     41 H          -4.5809   -6.1554    1.2728 H       1  UNL11       0.0278
     42 H          -5.3279   -5.9379   -0.3065 H       1  UNL11       0.0278
     43 H          -6.5168   -5.5272    2.2638 H       1  UNL11       0.0266
     44 H          -7.1738   -5.1087    0.6817 H       1  UNL11       0.0266
     45 H          -7.2961   -3.1692    1.9731 H       1  UNL11       0.0278
     46 H          -5.6791   -3.3157    2.6982 H       1  UNL11       0.0278
     47 H          -6.6078   -2.6611   -0.1187 H       1  UNL11       0.0444
     48 H          -5.6949   -1.5765    1.0585 H       1  UNL11       0.0444
     49 H          -1.0351   -0.4198   -0.9948 H       1  UNL11       0.0644
@<TRIPOS>BOND
     1     1     2    2
     2     2     3   am
     3     2    14    1
     4     3     4    1
     5     3    29    1
     6     4     5   am
     7     4    30    1
     8     5     6    2
     9     5     7    1
    10     7     8   ar
    11     8     9   ar
    12     8    31    1
    13     9    10   ar
    14     9    32    1
    15    10    11   ar
    16    10    33    1
    17    11    12   ar
    18    11    34    1
    19    12    13    1
    20    12     7   ar
    21    13    35    1
    22    14    15   ar
    23    15    16   ar
    24    15    36    1
    25    16    17   ar
    26    16    37    1
    27    17    18   ar
    28    17    38    1
    29    18    19    1
    30    18    28   ar
    31    19    20    2
    32    19    21    2
    33    19    22    1
    34    22    23    1
    35    23    24    1
    36    23    39    1
    37    23    40    1
    38    24    25    1
    39    24    41    1
    40    24    42    1
    41    25    26    1
    42    25    43    1
    43    25    44    1
    44    26    27    1
    45    26    45    1
    46    26    46    1
    47    27    22    1
    48    27    47    1
    49    27    48    1
    50    28    14   ar
    51    28    49    1
@<TRIPOS>MOLECULE
*****
 49 51 0 0 0
SMALL
GASTEIGER

@<TRIPOS>ATOM
      1 O           2.3973    0.0114    0.8789 O.2     1  UNL11      -0.2687
      2 C           1.3246   -0.0559    0.2041 C.2     1  UNL11       0.2602
      3 N           1.2335    0.7230   -0.9542 N.am    1  UNL11      -0.2301
      4 N           2.2511    1.5874   -1.4371 N.am    1  UNL11      -0.2300
      5 C           2.0753    2.3503   -2.6061 C.2     1  UNL11       0.2637
      6 O           3.0626    3.0713   -2.9377 O.2     1  UNL11      -0.2685
      7 C           0.8241    2.2870   -3.3540 C.ar    1  UNL11       0.0795
      8 C           0.3566    3.3613   -4.0676 C.ar    1  UNL11      -0.0460
      9 C          -0.8200    3.3524   -4.7803 C.ar    1  UNL11      -0.0608
     10 C          -1.5830    2.2243   -4.7937 C.ar    1  UNL11      -0.0583
     11 C          -1.1672    1.1232   -4.1011 C.ar    1  UNL11      -0.0194
     12 C           0.0345    1.1295   -3.3727 C.ar    1  UNL11       0.1290
     13 O           0.3741   -0.0025   -2.7159 O.3     1  UNL11      -0.5060
     14 C           0.2305   -0.9314    0.6477 C.ar    1  UNL11       0.0400
     15 C           0.3225   -1.6964    1.7869 C.ar    1  UNL11      -0.0495
     16 C          -0.7007   -2.5389    2.2165 C.ar    1  UNL11      -0.0592
     17 C          -1.8632   -2.6279    1.4858 C.ar    1  UNL11      -0.0353
     18 C          -1.9589   -1.8535    0.3307 C.ar    1  UNL11       0.1062
     19 S          -3.4492   -1.9812   -0.5892 S.O2    1  UNL11       0.0609
     20 O          -3.0543   -2.4313   -1.9880 O.2     1  UNL11      -0.1528
     21 O          -4.0683   -0.6157   -0.7755 O.2     1  UNL11      -0.1528
     22 N          -4.5650   -3.0271    0.0530 N.3     1  UNL11      -0.1766
     23 C          -5.4713   -2.4534    0.9560 C.3     1  UNL11       0.0205
     24 C          -6.2450   -3.3927    1.8235 C.3     1  UNL11      -0.0385
     25 C          -6.6906   -4.6344    1.1419 C.3     1  UNL11      -0.0506
     26 C          -6.3477   -4.6556   -0.3061 C.3     1  UNL11      -0.0385
     27 C          -4.8879   -4.2411   -0.5492 C.3     1  UNL11       0.0205
     28 C          -0.9322   -1.0176   -0.0853 C.ar    1  UNL11      -0.0232
     29 H           0.3613    0.6929   -1.5309 H       1  UNL11       0.1731
     30 H           3.1044    1.5979   -0.8562 H       1  UNL11       0.1731
     31 H           0.9211    4.2682   -4.0875 H       1  UNL11       0.0626
     32 H          -1.1167    4.2464   -5.3163 H       1  UNL11       0.0618
     33 H          -2.5127    2.2432   -5.3657 H       1  UNL11       0.0619
     34 H          -1.8042    0.2463   -4.1400 H       1  UNL11       0.0654
     35 H           1.1067   -0.2939   -2.1530 H       1  UNL11       0.2922
     36 H           1.2176   -1.6403    2.3763 H       1  UNL11       0.0625
     37 H          -0.6092   -3.1284    3.1130 H       1  UNL11       0.0618
     38 H          -2.6931   -3.2561    1.7583 H       1  UNL11       0.0637
     39 H          -6.2469   -1.8907    0.3476 H       1  UNL11       0.0444
     40 H          -4.9664   -1.7334    1.6484 H       1  UNL11       0.0444
     41 H          -7.1801   -2.8434    2.1511 H       1  UNL11       0.0278
     42 H          -5.7290   -3.6089    2.7899 H       1  UNL11       0.0278
     43 H          -7.7929   -4.8108    1.2137 H       1  UNL11       0.0266
     44 H          -6.2362   -5.4988    1.6753 H       1  UNL11       0.0266
     45 H          -6.3938   -5.7364   -0.6404 H       1  UNL11       0.0278
     46 H          -7.0393   -4.1106   -0.9596 H       1  UNL11       0.0278
     47 H          -4.3044   -5.0894   -0.0718 H       1  UNL11       0.0444
     48 H          -4.7530   -4.2412   -1.6449 H       1  UNL11       0.0444
     49 H          -1.0351   -0.4198   -0.9948 H       1  UNL11       0.0644
@<TRIPOS>BOND
     1     1     2    2
     2     2     3   am
     3     2    14    1
     4     3     4    1
     5     3    29    1
     6     4     5   am
     7     4    30    1
     8     5     6    2
     9     5     7    1
    10     7     8   ar
    11     8     9   ar
    12     8    31    1
    13     9    10   ar
    14     9    32    1
    15    10    11   ar
    16    10    33    1
    17    11    12   ar
    18    11    34    1
    19    12    13    1
    20    12     7   ar
    21    13    35    1
    22    14    15   ar
    23    15    16   ar
    24    15    36    1
    25    16    17   ar
    26    16    37    1
    27    17    18   ar
    28    17    38    1
    29    18    19    1
    30    18    28   ar
    31    19    20    2
    32    19    21    2
    33    19    22    1
    34    22    23    1
    35    23    24    1
    36    23    39    1
    37    23    40    1
    38    24    25    1
    39    24    41    1
    40    24    42    1
    41    25    26    1
    42    25    43    1
    43    25    44    1
    44    26    27    1
    45    26    45    1
    46    26    46    1
    47    27    22    1
    48    27    47    1
    49    27    48    1
    50    28    14   ar
    51    28    49    1
@<TRIPOS>MOLECULE
*****
 49 51 0 0 0
SMALL
GASTEIGER

@<TRIPOS>ATOM
      1 O           1.4928    0.1731   -1.0328 O.2     1  UNL11      -0.2687
      2 C           1.3246   -0.0559    0.2041 C.2     1  UNL11       0.2602
      3 N           2.2075    0.5490    1.1048 N.am    1  UNL11      -0.2301
      4 N           2.1701    0.3883    2.5149 N.am    1  UNL11      -0.2300
      5 C           1.6921   -0.7944    3.1086 C.2     1  UNL11       0.2637
      6 O           1.6985   -0.8074    4.3752 O.2     1  UNL11      -0.2685
      7 C           1.2319   -1.9067    2.2840 C.ar    1  UNL11       0.0795
      8 C           1.2477   -1.8420    0.9138 C.ar    1  UNL11      -0.0460
      9 C           0.8167   -2.8600    0.0951 C.ar    1  UNL11      -0.0608
     10 C           0.3421   -4.0085    0.6526 C.ar    1  UNL11      -0.0583
     11 C           0.3029   -4.1296    2.0123 C.ar    1  UNL11      -0.0194
     12 C           0.7430   -3.0914    2.8509 C.ar    1  UNL11       0.1290
     13 O           0.6718   -3.2925    4.1860 O.3     1  UNL11      -0.5060
     14 C           0.2305   -0.9314    0.6477 C.ar    1  UNL11       0.0400
     15 C           0.3225   -1.6964    1.7869 C.ar    1  UNL11      -0.0495
     16 C          -0.7007   -2.5389    2.2165 C.ar    1  UNL11      -0.0592
     17 C          -1.8632   -2.6279    1.4858 C.ar    1  UNL11      -0.0353
     18 C          -1.9589   -1.8535    0.3307 C.ar    1  UNL11       0.1062
     19 S          -3.4492   -1.9812   -0.5892 S.O2    1  UNL11       0.0609
     20 O          -3.9532   -3.4039   -0.3968 O.2     1  UNL11      -0.1528
     21 O          -3.1638   -1.8617   -2.0681 O.2     1  UNL11      -0.1528
     22 N          -4.6232   -0.8955   -0.1485 N.3     1  UNL11      -0.1766
     23 C          -4.1999    0.4382   -0.0575 C.3     1  UNL11       0.0205
     24 C          -5.0990    1.3828    0.6724 C.3     1  UNL11      -0.0385
     25 C          -6.5476    1.1665    0.4282 C.3     1  UNL11      -0.0506
     26 C          -6.8133    0.0964   -0.5714 C.3     1  UNL11      -0.0385
     27 C          -5.9830   -1.1650   -0.2859 C.3     1  UNL11       0.0205
     28 C          -0.9322   -1.0176   -0.0853 C.ar    1  UNL11      -0.0232
     29 H           2.9635    1.1767    0.7459 H       1  UNL11       0.1731
     30 H           2.5223    1.2040    3.0406 H       1  UNL11       0.1731
     31 H           1.6119   -0.9614    0.4308 H       1  UNL11       0.0626
     32 H           0.8624   -2.7257   -0.9793 H       1  UNL11       0.0618
     33 H           0.0050   -4.8008   -0.0186 H       1  UNL11       0.0619
     34 H          -0.0809   -5.0611    2.4138 H       1  UNL11       0.0654
     35 H           0.8883   -2.7876    4.9839 H       1  UNL11       0.2922
     36 H           1.2176   -1.6403    2.3763 H       1  UNL11       0.0625
     37 H          -0.6092   -3.1284    3.1130 H       1  UNL11       0.0618
     38 H          -2.6931   -3.2561    1.7583 H       1  UNL11       0.0637
     39 H          -4.1248    0.8437   -1.1149 H       1  UNL11       0.0444
     40 H          -3.1966    0.5217    0.4314 H       1  UNL11       0.0444
     41 H          -4.8544    2.4242    0.2995 H       1  UNL11       0.0278
     42 H          -4.8638    1.4444    1.7623 H       1  UNL11       0.0278
     43 H          -7.0801    2.0819    0.0682 H       1  UNL11       0.0266
     44 H          -7.0274    0.9325    1.4046 H       1  UNL11       0.0266
     45 H          -7.8867   -0.2329   -0.4250 H       1  UNL11       0.0278
     46 H          -6.7357    0.4053   -1.6206 H       1  UNL11       0.0278
     47 H          -6.4168   -1.5326    0.6963 H       1  UNL11       0.0444
     48 H          -6.2141   -1.8694   -1.1040 H       1  UNL11       0.0444
     49 H          -1.0351   -0.4198   -0.9948 H       1  UNL11       0.0644
@<TRIPOS>BOND
     1     1     2    2
     2     2     3   am
     3     2    14    1
     4     3     4    1
     5     3    29    1
     6     4     5   am
     7     4    30    1
     8     5     6    2
     9     5     7    1
    10     7     8   ar
    11     8     9   ar
    12     8    31    1
    13     9    10   ar
    14     9    32    1
    15    10    11   ar
    16    10    33    1
    17    11    12   ar
    18    11    34    1
    19    12    13    1
    20    12     7   ar
    21    13    35    1
    22    14    15   ar
    23    15    16   ar
    24    15    36    1
    25    16    17   ar
    26    16    37    1
    27    17    18   ar
    28    17    38    1
    29    18    19    1
    30    18    28   ar
    31    19    20    2
    32    19    21    2
    33    19    22    1
    34    22    23    1
    35    23    24    1
    36    23    39    1
    37    23    40    1
    38    24    25    1
    39    24    41    1
    40    24    42    1
    41    25    26    1
    42    25    43    1
    43    25    44    1
    44    26    27    1
    45    26    45    1
    46    26    46    1
    47    27    22    1
    48    27    47    1
    49    27    48    1
    50    28    14   ar
    51    28    49    1
@<TRIPOS>MOLECULE
*****
 49 51 0 0 0
SMALL
GASTEIGER

@<TRIPOS>ATOM
      1 O           2.1098    0.4607    1.0568 O.2     1  UNL11      -0.2687
      2 C           1.3246   -0.0559    0.2041 C.2     1  UNL11       0.2602
      3 N           1.5431    0.2391   -1.1457 N.am    1  UNL11      -0.2301
      4 N           0.7532   -0.2416   -2.2231 N.am    1  UNL11      -0.2300
      5 C           0.0911   -1.4812   -2.1546 C.2     1  UNL11       0.2637
      6 O           0.2526   -2.1243   -1.0753 O.2     1  UNL11      -0.2685
      7 C          -0.7148   -1.9565   -3.2742 C.ar    1  UNL11       0.0795
      8 C          -0.4250   -1.6082   -4.5690 C.ar    1  UNL11      -0.0460
      9 C          -1.1595   -2.0237   -5.6554 C.ar    1  UNL11      -0.0608
     10 C          -2.2416   -2.8275   -5.4607 C.ar    1  UNL11      -0.0583
     11 C          -2.5778   -3.2069   -4.1927 C.ar    1  UNL11      -0.0194
     12 C          -1.8290   -2.7842   -3.0812 C.ar    1  UNL11       0.1290
     13 O          -2.2285   -3.2061   -1.8604 O.3     1  UNL11      -0.5060
     14 C           0.2305   -0.9314    0.6477 C.ar    1  UNL11       0.0400
     15 C           0.3225   -1.6964    1.7869 C.ar    1  UNL11      -0.0495
     16 C          -0.7007   -2.5389    2.2165 C.ar    1  UNL11      -0.0592
     17 C          -1.8632   -2.6279    1.4858 C.ar    1  UNL11      -0.0353
     18 C          -1.9589   -1.8535    0.3307 C.ar    1  UNL11       0.1062
     19 S          -3.4492   -1.9812   -0.5892 S.O2    1  UNL11       0.0609
     20 O          -4.3107   -3.0104    0.1277 O.2     1  UNL11      -0.1528
     21 O          -3.1752   -2.5772   -1.9503 O.2     1  UNL11      -0.1528
     22 N          -4.2803   -0.5549   -0.7513 N.3     1  UNL11      -0.1766
     23 C          -3.9476    0.2054   -1.8816 C.3     1  UNL11       0.0205
     24 C          -4.3859    1.6341   -1.8861 C.3     1  UNL11      -0.0385
     25 C          -5.7344    1.8661   -1.3096 C.3     1  UNL11      -0.0506
     26 C          -6.4215    0.6057   -0.9169 C.3     1  UNL11      -0.0385
     27 C          -5.4946   -0.3180   -0.1110 C.3     1  UNL11       0.0205
     28 C          -0.9322   -1.0176   -0.0853 C.ar    1  UNL11      -0.0232
     29 H           2.3430    0.8558   -1.4178 H       1  UNL11       0.1731
     30 H           0.7155    0.3960   -3.0340 H       1  UNL11       0.1731
     31 H           0.4149   -0.9796   -4.7715 H       1  UNL11       0.0626
     32 H          -0.8617   -1.7004   -6.6460 H       1  UNL11       0.0618
     33 H          -2.8085   -3.1426   -6.3389 H       1  UNL11       0.0619
     34 H          -3.4456   -3.8483   -4.0833 H       1  UNL11       0.0654
     35 H          -1.9316   -3.0885   -0.9457 H       1  UNL11       0.2922
     36 H           1.2176   -1.6403    2.3763 H       1  UNL11       0.0625
     37 H          -0.6092   -3.1284    3.1130 H       1  UNL11       0.0618
     38 H          -2.6931   -3.2561    1.7583 H       1  UNL11       0.0637
     39 H          -4.4579   -0.2734   -2.7753 H       1  UNL11       0.0444
     40 H          -2.8432    0.2172   -2.0623 H       1  UNL11       0.0444
     41 H          -4.4308    1.9610   -2.9700 H       1  UNL11       0.0278
     42 H          -3.6209    2.3197   -1.4484 H       1  UNL11       0.0278
     43 H          -6.4273    2.4078   -2.0008 H       1  UNL11       0.0266
     44 H          -5.6207    2.5499   -0.4390 H       1  UNL11       0.0266
     45 H          -7.2406    0.8894   -0.1884 H       1  UNL11       0.0278
     46 H          -6.9199    0.0696   -1.7334 H       1  UNL11       0.0278
     47 H          -5.3310    0.2670    0.8478 H       1  UNL11       0.0444
     48 H          -6.0781   -1.2346    0.0843 H       1  UNL11       0.0444
     49 H          -1.0351   -0.4198   -0.9948 H       1  UNL11       0.0644
@<TRIPOS>BOND
     1     1     2    2
     2     2     3   am
     3     2    14    1
     4     3     4    1
     5     3    29    1
     6     4     5   am
     7     4    30    1
     8     5     6    2
     9     5     7    1
    10     7     8   ar
    11     8     9   ar
    12     8    31    1
    13     9    10   ar
    14     9    32    1
    15    10    11   ar
    16    10    33    1
    17    11    12   ar
    18    11    34    1
    19    12    13    1
    20    12     7   ar
    21    13    35    1
    22    14    15   ar
    23    15    16   ar
    24    15    36    1
    25    16    17   ar
    26    16    37    1
    27    17    18   ar
    28    17    38    1
    29    18    19    1
    30    18    28   ar
    31    19    20    2
    32    19    21    2
    33    19    22    1
    34    22    23    1
    35    23    24    1
    36    23    39    1
    37    23    40    1
    38    24    25    1
    39    24    41    1
    40    24    42    1
    41    25    26    1
    42    25    43    1
    43    25    44    1
    44    26    27    1
    45    26    45    1
    46    26    46    1
    47    27    22    1
    48    27    47    1
    49    27    48    1
    50    28    14   ar
    51    28    49    1
@<TRIPOS>MOLECULE
*****
 49 51 0 0 0
SMALL
GASTEIGER

@<TRIPOS>ATOM
      1 O           2.1098    0.4607    1.0568 O.2     1  UNL11      -0.2687
      2 C           1.3246   -0.0559    0.2041 C.2     1  UNL11       0.2602
      3 N           1.5431    0.2391   -1.1457 N.am    1  UNL11      -0.2301
      4 N           0.7532   -0.2416   -2.2231 N.am    1  UNL11      -0.2300
      5 C           0.0911   -1.4812   -2.1546 C.2     1  UNL11       0.2637
      6 O          -0.5702   -1.8016   -3.1864 O.2     1  UNL11      -0.2685
      7 C           0.1849   -2.3089   -0.9567 C.ar    1  UNL11       0.0795
      8 C           0.9141   -1.9141    0.1361 C.ar    1  UNL11      -0.0460
      9 C           1.0391   -2.6628    1.2833 C.ar    1  UNL11      -0.0608
     10 C           0.4127   -3.8696    1.3635 C.ar    1  UNL11      -0.0583
     11 C          -0.3278   -4.3143    0.3058 C.ar    1  UNL11      -0.0194
     12 C          -0.4575   -3.5511   -0.8671 C.ar    1  UNL11       0.1290
     13 O          -1.2098   -4.0633   -1.8669 O.3     1  UNL11      -0.5060
     14 C           0.2305   -0.9314    0.6477 C.ar    1  UNL11       0.0400
     15 C           0.3225   -1.6964    1.7869 C.ar    1  UNL11      -0.0495
     16 C          -0.7007   -2.5389    2.2165 C.ar    1  UNL11      -0.0592
     17 C          -1.8632   -2.6279    1.4858 C.ar    1  UNL11      -0.0353
     18 C          -1.9589   -1.8535    0.3307 C.ar    1  UNL11       0.1062
     19 S          -3.4492   -1.9812   -0.5892 S.O2    1  UNL11       0.0609
     20 O          -3.9532   -3.4039   -0.3968 O.2     1  UNL11      -0.1528
     21 O          -3.1638   -1.8617   -2.0681 O.2     1  UNL11      -0.1528
     22 N          -4.6232   -0.8955   -0.1485 N.3     1  UNL11      -0.1766
     23 C          -4.1999    0.4382   -0.0575 C.3     1  UNL11       0.0205
     24 C          -5.0990    1.3828    0.6724 C.3     1  UNL11      -0.0385
     25 C          -6.5476    1.1665    0.4282 C.3     1  UNL11      -0.0506
     26 C          -6.8133    0.0964   -0.5714 C.3     1  UNL11      -0.0385
     27 C          -5.9830   -1.1650   -0.2859 C.3     1  UNL11       0.0205
     28 C          -0.9322   -1.0176   -0.0853 C.ar    1  UNL11      -0.0232
     29 H           2.3430    0.8558   -1.4178 H       1  UNL11       0.1731
     30 H           0.7155    0.3960   -3.0340 H       1  UNL11       0.1731
     31 H           1.4228   -0.9746    0.1203 H       1  UNL11       0.0626
     32 H           1.6365   -2.2764    2.1009 H       1  UNL11       0.0618
     33 H           0.5285   -4.4450    2.2840 H       1  UNL11       0.0619
     34 H          -0.8106   -5.2796    0.4126 H       1  UNL11       0.0654
     35 H          -1.4746   -3.7880   -2.7572 H       1  UNL11       0.2922
     36 H           1.2176   -1.6403    2.3763 H       1  UNL11       0.0625
     37 H          -0.6092   -3.1284    3.1130 H       1  UNL11       0.0618
     38 H          -2.6931   -3.2561    1.7583 H       1  UNL11       0.0637
     39 H          -4.1248    0.8437   -1.1149 H       1  UNL11       0.0444
     40 H          -3.1966    0.5217    0.4314 H       1  UNL11       0.0444
     41 H          -4.8544    2.4242    0.2995 H       1  UNL11       0.0278
     42 H          -4.8638    1.4444    1.7623 H       1  UNL11       0.0278
     43 H          -7.0801    2.0819    0.0682 H       1  UNL11       0.0266
     44 H          -7.0274    0.9325    1.4046 H       1  UNL11       0.0266
     45 H          -7.8867   -0.2329   -0.4250 H       1  UNL11       0.0278
     46 H          -6.7357    0.4053   -1.6206 H       1  UNL11       0.0278
     47 H          -6.4168   -1.5326    0.6963 H       1  UNL11       0.0444
     48 H          -6.2141   -1.8694   -1.1040 H       1  UNL11       0.0444
     49 H          -1.0351   -0.4198   -0.9948 H       1  UNL11       0.0644
@<TRIPOS>BOND
     1     1     2    2
     2     2     3   am
     3     2    14    1
     4     3     4    1
     5     3    29    1
     6     4     5   am
     7     4    30    1
     8     5     6    2
     9     5     7    1
    10     7     8   ar
    11     8     9   ar
    12     8    31    1
    13     9    10   ar
    14     9    32    1
    15    10    11   ar
    16    10    33    1
    17    11    12   ar
    18    11    34    1
    19    12    13    1
    20    12     7   ar
    21    13    35    1
    22    14    15   ar
    23    15    16   ar
    24    15    36    1
    25    16    17   ar
    26    16    37    1
    27    17    18   ar
    28    17    38    1
    29    18    19    1
    30    18    28   ar
    31    19    20    2
    32    19    21    2
    33    19    22    1
    34    22    23    1
    35    23    24    1
    36    23    39    1
    37    23    40    1
    38    24    25    1
    39    24    41    1
    40    24    42    1
    41    25    26    1
    42    25    43    1
    43    25    44    1
    44    26    27    1
    45    26    45    1
    46    26    46    1
    47    27    22    1
    48    27    47    1
    49    27    48    1
    50    28    14   ar
    51    28    49    1
@<TRIPOS>MOLECULE
*****
 49 51 0 0 0
SMALL
GASTEIGER

@<TRIPOS>ATOM
      1 O           1.4928    0.1731   -1.0328 O.2     1  UNL11      -0.2687
      2 C           1.3246   -0.0559    0.2041 C.2     1  UNL11       0.2602
      3 N           2.2075    0.5490    1.1048 N.am    1  UNL11      -0.2301
      4 N           2.1701    0.3883    2.5149 N.am    1  UNL11      -0.2300
      5 C           0.9643    0.1383    3.1956 C.2     1  UNL11       0.2637
      6 O           1.0635    0.0278    4.4535 O.2     1  UNL11      -0.2685
      7 C          -0.2920    0.0198    2.4631 C.ar    1  UNL11       0.0795
      8 C          -1.3137   -0.7788    2.9104 C.ar    1  UNL11      -0.0460
      9 C          -2.5116   -0.9293    2.2510 C.ar    1  UNL11      -0.0608
     10 C          -2.7196   -0.2577    1.0846 C.ar    1  UNL11      -0.0583
     11 C          -1.7374    0.5526    0.5910 C.ar    1  UNL11      -0.0194
     12 C          -0.5131    0.7085    1.2628 C.ar    1  UNL11       0.1290
     13 O           0.4054    1.5305    0.7072 O.3     1  UNL11      -0.5060
     14 C           0.2305   -0.9314    0.6477 C.ar    1  UNL11       0.0400
     15 C           0.3225   -1.6964    1.7869 C.ar    1  UNL11      -0.0495
     16 C          -0.7007   -2.5389    2.2165 C.ar    1  UNL11      -0.0592
     17 C          -1.8632   -2.6279    1.4858 C.ar    1  UNL11      -0.0353
     18 C          -1.9589   -1.8535    0.3307 C.ar    1  UNL11       0.1062
     19 S          -3.4492   -1.9812   -0.5892 S.O2    1  UNL11       0.0609
     20 O          -3.0543   -2.4313   -1.9880 O.2     1  UNL11      -0.1528
     21 O          -4.0683   -0.6157   -0.7755 O.2     1  UNL11      -0.1528
     22 N          -4.5650   -3.0271    0.0530 N.3     1  UNL11      -0.1766
     23 C          -4.0705   -4.2952    0.3900 C.3     1  UNL11       0.0205
     24 C          -5.0798   -5.3723    0.6238 C.3     1  UNL11      -0.0385
     25 C          -6.2990   -4.9273    1.3452 C.3     1  UNL11      -0.0506
     26 C          -6.2331   -3.5027    1.7706 C.3     1  UNL11      -0.0385
     27 C          -5.7564   -2.5914    0.6286 C.3     1  UNL11       0.0205
     28 C          -0.9322   -1.0176   -0.0853 C.ar    1  UNL11      -0.0232
     29 H           2.9635    1.1767    0.7459 H       1  UNL11       0.1731
     30 H           3.0922    0.4689    2.9719 H       1  UNL11       0.1731
     31 H          -1.1972   -1.3250    3.8213 H       1  UNL11       0.0626
     32 H          -3.2661   -1.5824    2.6739 H       1  UNL11       0.0618
     33 H          -3.6780   -0.3949    0.5800 H       1  UNL11       0.0619
     34 H          -1.9455    1.0696   -0.3395 H       1  UNL11       0.0654
     35 H           1.3021    1.8275    0.9222 H       1  UNL11       0.2922
     36 H           1.2176   -1.6403    2.3763 H       1  UNL11       0.0625
     37 H          -0.6092   -3.1284    3.1130 H       1  UNL11       0.0618
     38 H          -2.6931   -3.2561    1.7583 H       1  UNL11       0.0637
     39 H          -3.5041   -4.1901    1.3680 H       1  UNL11       0.0444
     40 H          -3.3705   -4.6876   -0.3901 H       1  UNL11       0.0444
     41 H          -4.5809   -6.1554    1.2728 H       1  UNL11       0.0278
     42 H          -5.3279   -5.9379   -0.3065 H       1  UNL11       0.0278
     43 H          -6.5168   -5.5272    2.2638 H       1  UNL11       0.0266
     44 H          -7.1738   -5.1087    0.6817 H       1  UNL11       0.0266
     45 H          -7.2961   -3.1692    1.9731 H       1  UNL11       0.0278
     46 H          -5.6791   -3.3157    2.6982 H       1  UNL11       0.0278
     47 H          -6.6078   -2.6611   -0.1187 H       1  UNL11       0.0444
     48 H          -5.6949   -1.5765    1.0585 H       1  UNL11       0.0444
     49 H          -1.0351   -0.4198   -0.9948 H       1  UNL11       0.0644
@<TRIPOS>BOND
     1     1     2    2
     2     2     3   am
     3     2    14    1
     4     3     4    1
     5     3    29    1
     6     4     5   am
     7     4    30    1
     8     5     6    2
     9     5     7    1
    10     7     8   ar
    11     8     9   ar
    12     8    31    1
    13     9    10   ar
    14     9    32    1
    15    10    11   ar
    16    10    33    1
    17    11    12   ar
    18    11    34    1
    19    12    13    1
    20    12     7   ar
    21    13    35    1
    22    14    15   ar
    23    15    16   ar
    24    15    36    1
    25    16    17   ar
    26    16    37    1
    27    17    18   ar
    28    17    38    1
    29    18    19    1
    30    18    28   ar
    31    19    20    2
    32    19    21    2
    33    19    22    1
    34    22    23    1
    35    23    24    1
    36    23    39    1
    37    23    40    1
    38    24    25    1
    39    24    41    1
    40    24    42    1
    41    25    26    1
    42    25    43    1
    43    25    44    1
    44    26    27    1
    45    26    45    1
    46    26    46    1
    47    27    22    1
    48    27    47    1
    49    27    48    1
    50    28    14   ar
    51    28    49    1
@<TRIPOS>MOLECULE
*****
 49 51 0 0 0
SMALL
GASTEIGER

@<TRIPOS>ATOM
      1 O           1.4928    0.1731   -1.0328 O.2     1  UNL11      -0.2687
      2 C           1.3246   -0.0559    0.2041 C.2     1  UNL11       0.2602
      3 N           2.2075    0.5490    1.1048 N.am    1  UNL11      -0.2301
      4 N           3.2823    1.4032    0.7430 N.am    1  UNL11      -0.2300
      5 C           3.2288    2.2047   -0.4122 C.2     1  UNL11       0.2637
      6 O           4.2568    2.9119   -0.6308 O.2     1  UNL11      -0.2685
      7 C           2.0494    2.1932   -1.2710 C.ar    1  UNL11       0.0795
      8 C           0.9600    1.4092   -0.9878 C.ar    1  UNL11      -0.0460
      9 C          -0.1699    1.3580   -1.7708 C.ar    1  UNL11      -0.0608
     10 C          -0.2352    2.1201   -2.8977 C.ar    1  UNL11      -0.0583
     11 C           0.8199    2.9208   -3.2299 C.ar    1  UNL11      -0.0194
     12 C           1.9751    2.9752   -2.4315 C.ar    1  UNL11       0.1290
     13 O           2.9736    3.7948   -2.8307 O.3     1  UNL11      -0.5060
     14 C           0.2305   -0.9314    0.6477 C.ar    1  UNL11       0.0400
     15 C           0.3225   -1.6964    1.7869 C.ar    1  UNL11      -0.0495
     16 C          -0.7007   -2.5389    2.2165 C.ar    1  UNL11      -0.0592
     17 C          -1.8632   -2.6279    1.4858 C.ar    1  UNL11      -0.0353
     18 C          -1.9589   -1.8535    0.3307 C.ar    1  UNL11       0.1062
     19 S          -3.4492   -1.9812   -0.5892 S.O2    1  UNL11       0.0609
     20 O          -3.9532   -3.4039   -0.3968 O.2     1  UNL11      -0.1528
     21 O          -3.1638   -1.8617   -2.0681 O.2     1  UNL11      -0.1528
     22 N          -4.6232   -0.8955   -0.1485 N.3     1  UNL11      -0.1766
     23 C          -4.1999    0.4382   -0.0575 C.3     1  UNL11       0.0205
     24 C          -5.0990    1.3828    0.6724 C.3     1  UNL11      -0.0385
     25 C          -6.5476    1.1665    0.4282 C.3     1  UNL11      -0.0506
     26 C          -6.8133    0.0964   -0.5714 C.3     1  UNL11      -0.0385
     27 C          -5.9830   -1.1650   -0.2859 C.3     1  UNL11       0.0205
     28 C          -0.9322   -1.0176   -0.0853 C.ar    1  UNL11      -0.0232
     29 H           2.0981    0.3778    2.1309 H       1  UNL11       0.1731
     30 H           4.0796    1.3764    1.3981 H       1  UNL11       0.1731
     31 H           0.9646    0.7944   -0.1139 H       1  UNL11       0.0626
     32 H          -0.9860    0.7093   -1.4745 H       1  UNL11       0.0618
     33 H          -1.1422    2.0608   -3.5026 H       1  UNL11       0.0619
     34 H           0.7253    3.5118   -4.1344 H       1  UNL11       0.0654
     35 H           3.8541    4.0368   -2.5070 H       1  UNL11       0.2922
     36 H           1.2176   -1.6403    2.3763 H       1  UNL11       0.0625
     37 H          -0.6092   -3.1284    3.1130 H       1  UNL11       0.0618
     38 H          -2.6931   -3.2561    1.7583 H       1  UNL11       0.0637
     39 H          -4.1248    0.8437   -1.1149 H       1  UNL11       0.0444
     40 H          -3.1966    0.5217    0.4314 H       1  UNL11       0.0444
     41 H          -4.8544    2.4242    0.2995 H       1  UNL11       0.0278
     42 H          -4.8638    1.4444    1.7623 H       1  UNL11       0.0278
     43 H          -7.0801    2.0819    0.0682 H       1  UNL11       0.0266
     44 H          -7.0274    0.9325    1.4046 H       1  UNL11       0.0266
     45 H          -7.8867   -0.2329   -0.4250 H       1  UNL11       0.0278
     46 H          -6.7357    0.4053   -1.6206 H       1  UNL11       0.0278
     47 H          -6.4168   -1.5326    0.6963 H       1  UNL11       0.0444
     48 H          -6.2141   -1.8694   -1.1040 H       1  UNL11       0.0444
     49 H          -1.0351   -0.4198   -0.9948 H       1  UNL11       0.0644
@<TRIPOS>BOND
     1     1     2    2
     2     2     3   am
     3     2    14    1
     4     3     4    1
     5     3    29    1
     6     4     5   am
     7     4    30    1
     8     5     6    2
     9     5     7    1
    10     7     8   ar
    11     8     9   ar
    12     8    31    1
    13     9    10   ar
    14     9    32    1
    15    10    11   ar
    16    10    33    1
    17    11    12   ar
    18    11    34    1
    19    12    13    1
    20    12     7   ar
    21    13    35    1
    22    14    15   ar
    23    15    16   ar
    24    15    36    1
    25    16    17   ar
    26    16    37    1
    27    17    18   ar
    28    17    38    1
    29    18    19    1
    30    18    28   ar
    31    19    20    2
    32    19    21    2
    33    19    22    1
    34    22    23    1
    35    23    24    1
    36    23    39    1
    37    23    40    1
    38    24    25    1
    39    24    41    1
    40    24    42    1
    41    25    26    1
    42    25    43    1
    43    25    44    1
    44    26    27    1
    45    26    45    1
    46    26    46    1
    47    27    22    1
    48    27    47    1
    49    27    48    1
    50    28    14   ar
    51    28    49    1
@<TRIPOS>MOLECULE
*****
 49 51 0 0 0
SMALL
GASTEIGER

@<TRIPOS>ATOM
      1 O           1.4928    0.1731   -1.0328 O.2     1  UNL11      -0.2687
      2 C           1.3246   -0.0559    0.2041 C.2     1  UNL11       0.2602
      3 N           2.2075    0.5490    1.1048 N.am    1  UNL11      -0.2301
      4 N           2.1701    0.3883    2.5149 N.am    1  UNL11      -0.2300
      5 C           0.9643    0.1383    3.1956 C.2     1  UNL11       0.2637
      6 O          -0.0679    0.0698    2.4645 O.2     1  UNL11      -0.2685
      7 C           0.9487   -0.0225    4.6456 C.ar    1  UNL11       0.0795
      8 C           2.0279   -0.5268    5.3259 C.ar    1  UNL11      -0.0460
      9 C           2.0573   -0.7047    6.6896 C.ar    1  UNL11      -0.0608
     10 C           0.9643   -0.3688    7.4296 C.ar    1  UNL11      -0.0583
     11 C          -0.1397    0.1384    6.8061 C.ar    1  UNL11      -0.0194
     12 C          -0.1721    0.3216    5.4132 C.ar    1  UNL11       0.1290
     13 O          -1.3033    0.8306    4.8752 O.3     1  UNL11      -0.5060
     14 C           0.2305   -0.9314    0.6477 C.ar    1  UNL11       0.0400
     15 C           0.3225   -1.6964    1.7869 C.ar    1  UNL11      -0.0495
     16 C          -0.7007   -2.5389    2.2165 C.ar    1  UNL11      -0.0592
     17 C          -1.8632   -2.6279    1.4858 C.ar    1  UNL11      -0.0353
     18 C          -1.9589   -1.8535    0.3307 C.ar    1  UNL11       0.1062
     19 S          -3.4492   -1.9812   -0.5892 S.O2    1  UNL11       0.0609
     20 O          -3.0543   -2.4313   -1.9880 O.2     1  UNL11      -0.1528
     21 O          -4.0683   -0.6157   -0.7755 O.2     1  UNL11      -0.1528
     22 N          -4.5650   -3.0271    0.0530 N.3     1  UNL11      -0.1766
     23 C          -5.4713   -2.4534    0.9560 C.3     1  UNL11       0.0205
     24 C          -6.2450   -3.3927    1.8235 C.3     1  UNL11      -0.0385
     25 C          -6.6906   -4.6344    1.1419 C.3     1  UNL11      -0.0506
     26 C          -6.3477   -4.6556   -0.3061 C.3     1  UNL11      -0.0385
     27 C          -4.8879   -4.2411   -0.5492 C.3     1  UNL11       0.0205
     28 C          -0.9322   -1.0176   -0.0853 C.ar    1  UNL11      -0.0232
     29 H           2.9635    1.1767    0.7459 H       1  UNL11       0.1731
     30 H           3.0922    0.4689    2.9719 H       1  UNL11       0.1731
     31 H           2.9087   -0.8038    4.7882 H       1  UNL11       0.0626
     32 H           2.9515   -1.1111    7.1476 H       1  UNL11       0.0618
     33 H           1.0124   -0.5207    8.5097 H       1  UNL11       0.0619
     34 H          -0.9869    0.3938    7.4333 H       1  UNL11       0.0654
     35 H          -1.6160    1.0605    3.9876 H       1  UNL11       0.2922
     36 H           1.2176   -1.6403    2.3763 H       1  UNL11       0.0625
     37 H          -0.6092   -3.1284    3.1130 H       1  UNL11       0.0618
     38 H          -2.6931   -3.2561    1.7583 H       1  UNL11       0.0637
     39 H          -6.2469   -1.8907    0.3476 H       1  UNL11       0.0444
     40 H          -4.9664   -1.7334    1.6484 H       1  UNL11       0.0444
     41 H          -7.1801   -2.8434    2.1511 H       1  UNL11       0.0278
     42 H          -5.7290   -3.6089    2.7899 H       1  UNL11       0.0278
     43 H          -7.7929   -4.8108    1.2137 H       1  UNL11       0.0266
     44 H          -6.2362   -5.4988    1.6753 H       1  UNL11       0.0266
     45 H          -6.3938   -5.7364   -0.6404 H       1  UNL11       0.0278
     46 H          -7.0393   -4.1106   -0.9596 H       1  UNL11       0.0278
     47 H          -4.3044   -5.0894   -0.0718 H       1  UNL11       0.0444
     48 H          -4.7530   -4.2412   -1.6449 H       1  UNL11       0.0444
     49 H          -1.0351   -0.4198   -0.9948 H       1  UNL11       0.0644
@<TRIPOS>BOND
     1     1     2    2
     2     2     3   am
     3     2    14    1
     4     3     4    1
     5     3    29    1
     6     4     5   am
     7     4    30    1
     8     5     6    2
     9     5     7    1
    10     7     8   ar
    11     8     9   ar
    12     8    31    1
    13     9    10   ar
    14     9    32    1
    15    10    11   ar
    16    10    33    1
    17    11    12   ar
    18    11    34    1
    19    12    13    1
    20    12     7   ar
    21    13    35    1
    22    14    15   ar
    23    15    16   ar
    24    15    36    1
    25    16    17   ar
    26    16    37    1
    27    17    18   ar
    28    17    38    1
    29    18    19    1
    30    18    28   ar
    31    19    20    2
    32    19    21    2
    33    19    22    1
    34    22    23    1
    35    23    24    1
    36    23    39    1
    37    23    40    1
    38    24    25    1
    39    24    41    1
    40    24    42    1
    41    25    26    1
    42    25    43    1
    43    25    44    1
    44    26    27    1
    45    26    45    1
    46    26    46    1
    47    27    22    1
    48    27    47    1
    49    27    48    1
    50    28    14   ar
    51    28    49    1
@<TRIPOS>MOLECULE
*****
 49 51 0 0 0
SMALL
GASTEIGER

@<TRIPOS>ATOM
      1 O           1.1920    0.6433   -0.8466 O.2     1  UNL11      -0.2687
      2 C           1.3246   -0.0559    0.2041 C.2     1  UNL11       0.2602
      3 N           2.5315    0.0426    0.9044 N.am    1  UNL11      -0.2301
      4 N           2.8492   -0.6777    2.0859 N.am    1  UNL11      -0.2300
      5 C           1.8529   -1.0724    2.9977 C.2     1  UNL11       0.2637
      6 O           2.2676   -1.6974    4.0185 O.2     1  UNL11      -0.2685
      7 C           0.4494   -0.7640    2.7448 C.ar    1  UNL11       0.0795
      8 C           0.0731    0.3467    2.0331 C.ar    1  UNL11      -0.0460
      9 C          -1.2358    0.6835    1.7766 C.ar    1  UNL11      -0.0608
     10 C          -2.2341   -0.1155    2.2457 C.ar    1  UNL11      -0.0583
     11 C          -1.9190   -1.2354    2.9608 C.ar    1  UNL11      -0.0194
     12 C          -0.5827   -1.5820    3.2238 C.ar    1  UNL11       0.1290
     13 O          -0.3571   -2.7077    3.9378 O.3     1  UNL11      -0.5060
     14 C           0.2305   -0.9314    0.6477 C.ar    1  UNL11       0.0400
     15 C           0.3225   -1.6964    1.7869 C.ar    1  UNL11      -0.0495
     16 C          -0.7007   -2.5389    2.2165 C.ar    1  UNL11      -0.0592
     17 C          -1.8632   -2.6279    1.4858 C.ar    1  UNL11      -0.0353
     18 C          -1.9589   -1.8535    0.3307 C.ar    1  UNL11       0.1062
     19 S          -3.4492   -1.9812   -0.5892 S.O2    1  UNL11       0.0609
     20 O          -3.0543   -2.4313   -1.9880 O.2     1  UNL11      -0.1528
     21 O          -4.0683   -0.6157   -0.7755 O.2     1  UNL11      -0.1528
     22 N          -4.5650   -3.0271    0.0530 N.3     1  UNL11      -0.1766
     23 C          -5.4713   -2.4534    0.9560 C.3     1  UNL11       0.0205
     24 C          -6.2450   -3.3927    1.8235 C.3     1  UNL11      -0.0385
     25 C          -6.6906   -4.6344    1.1419 C.3     1  UNL11      -0.0506
     26 C          -6.3477   -4.6556   -0.3061 C.3     1  UNL11      -0.0385
     27 C          -4.8879   -4.2411   -0.5492 C.3     1  UNL11       0.0205
     28 C          -0.9322   -1.0176   -0.0853 C.ar    1  UNL11      -0.0232
     29 H           3.2781    0.6897    0.5605 H       1  UNL11       0.1731
     30 H           3.8557   -0.8768    2.1991 H       1  UNL11       0.1731
     31 H           0.8209    1.0033    1.6444 H       1  UNL11       0.0626
     32 H          -1.4457    1.5809    1.2064 H       1  UNL11       0.0618
     33 H          -3.2643    0.1742    2.0297 H       1  UNL11       0.0619
     34 H          -2.7445   -1.8438    3.3140 H       1  UNL11       0.0654
     35 H           0.4185   -3.1865    4.2660 H       1  UNL11       0.2922
     36 H           1.2176   -1.6403    2.3763 H       1  UNL11       0.0625
     37 H          -0.6092   -3.1284    3.1130 H       1  UNL11       0.0618
     38 H          -2.6931   -3.2561    1.7583 H       1  UNL11       0.0637
     39 H          -6.2469   -1.8907    0.3476 H       1  UNL11       0.0444
     40 H          -4.9664   -1.7334    1.6484 H       1  UNL11       0.0444
     41 H          -7.1801   -2.8434    2.1511 H       1  UNL11       0.0278
     42 H          -5.7290   -3.6089    2.7899 H       1  UNL11       0.0278
     43 H          -7.7929   -4.8108    1.2137 H       1  UNL11       0.0266
     44 H          -6.2362   -5.4988    1.6753 H       1  UNL11       0.0266
     45 H          -6.3938   -5.7364   -0.6404 H       1  UNL11       0.0278
     46 H          -7.0393   -4.1106   -0.9596 H       1  UNL11       0.0278
     47 H          -4.3044   -5.0894   -0.0718 H       1  UNL11       0.0444
     48 H          -4.7530   -4.2412   -1.6449 H       1  UNL11       0.0444
     49 H          -1.0351   -0.4198   -0.9948 H       1  UNL11       0.0644
@<TRIPOS>BOND
     1     1     2    2
     2     2     3   am
     3     2    14    1
     4     3     4    1
     5     3    29    1
     6     4     5   am
     7     4    30    1
     8     5     6    2
     9     5     7    1
    10     7     8   ar
    11     8     9   ar
    12     8    31    1
    13     9    10   ar
    14     9    32    1
    15    10    11   ar
    16    10    33    1
    17    11    12   ar
    18    11    34    1
    19    12    13    1
    20    12     7   ar
    21    13    35    1
    22    14    15   ar
    23    15    16   ar
    24    15    36    1
    25    16    17   ar
    26    16    37    1
    27    17    18   ar
    28    17    38    1
    29    18    19    1
    30    18    28   ar
    31    19    20    2
    32    19    21    2
    33    19    22    1
    34    22    23    1
    35    23    24    1
    36    23    39    1
    37    23    40    1
    38    24    25    1
    39    24    41    1
    40    24    42    1
    41    25    26    1
    42    25    43    1
    43    25    44    1
    44    26    27    1
    45    26    45    1
    46    26    46    1
    47    27    22    1
    48    27    47    1
    49    27    48    1
    50    28    14   ar
    51    28    49    1
@<TRIPOS>MOLECULE
*****
 49 51 0 0 0
SMALL
GASTEIGER

@<TRIPOS>ATOM
      1 O           2.5276   -0.3565    0.4742 O.2     1  UNL11      -0.2687
      2 C           1.3246   -0.0559    0.2041 C.2     1  UNL11       0.2602
      3 N           1.0931    1.1193   -0.5183 N.am    1  UNL11      -0.2301
      4 N          -0.1868    1.6083   -0.8905 N.am    1  UNL11      -0.2300
      5 C          -0.3744    2.3612   -2.0642 C.2     1  UNL11       0.2637
      6 O           0.6701    2.5660   -2.7509 O.2     1  UNL11      -0.2685
      7 C          -1.6986    2.8549   -2.4271 C.ar    1  UNL11       0.0795
      8 C          -2.6401    3.1567   -1.4761 C.ar    1  UNL11      -0.0460
      9 C          -3.9031    3.6163   -1.7692 C.ar    1  UNL11      -0.0608
     10 C          -4.2642    3.7897   -3.0709 C.ar    1  UNL11      -0.0583
     11 C          -3.3676    3.5055   -4.0609 C.ar    1  UNL11      -0.0194
     12 C          -2.0765    3.0364   -3.7643 C.ar    1  UNL11       0.1290
     13 O          -1.2498    2.7802   -4.8030 O.3     1  UNL11      -0.5060
     14 C           0.2305   -0.9314    0.6477 C.ar    1  UNL11       0.0400
     15 C           0.3225   -1.6964    1.7869 C.ar    1  UNL11      -0.0495
     16 C          -0.7007   -2.5389    2.2165 C.ar    1  UNL11      -0.0592
     17 C          -1.8632   -2.6279    1.4858 C.ar    1  UNL11      -0.0353
     18 C          -1.9589   -1.8535    0.3307 C.ar    1  UNL11       0.1062
     19 S          -3.4492   -1.9812   -0.5892 S.O2    1  UNL11       0.0609
     20 O          -4.3107   -3.0104    0.1277 O.2     1  UNL11      -0.1528
     21 O          -3.1752   -2.5772   -1.9503 O.2     1  UNL11      -0.1528
     22 N          -4.2803   -0.5549   -0.7513 N.3     1  UNL11      -0.1766
     23 C          -4.4825    0.1575    0.4394 C.3     1  UNL11       0.0205
     24 C          -5.5155    1.2371    0.4121 C.3     1  UNL11      -0.0385
     25 C          -5.5444    2.0298   -0.8431 C.3     1  UNL11      -0.0506
     26 C          -4.4710    1.6420   -1.7983 C.3     1  UNL11      -0.0385
     27 C          -4.3862    0.1168   -1.9672 C.3     1  UNL11       0.0205
     28 C          -0.9322   -1.0176   -0.0853 C.ar    1  UNL11      -0.0232
     29 H           1.9029    1.7054   -0.8267 H       1  UNL11       0.1731
     30 H          -0.9406    1.3580   -0.2311 H       1  UNL11       0.1731
     31 H          -2.4027    3.0372   -0.4413 H       1  UNL11       0.0626
     32 H          -4.5868    3.8297   -0.9558 H       1  UNL11       0.0618
     33 H          -5.2724    4.1544   -3.2771 H       1  UNL11       0.0619
     34 H          -3.6960    3.6592   -5.0831 H       1  UNL11       0.0654
     35 H          -0.3421    2.4606   -4.9146 H       1  UNL11       0.2922
     36 H           1.2176   -1.6403    2.3763 H       1  UNL11       0.0625
     37 H          -0.6092   -3.1284    3.1130 H       1  UNL11       0.0618
     38 H          -2.6931   -3.2561    1.7583 H       1  UNL11       0.0637
     39 H          -3.5057    0.6759    0.6951 H       1  UNL11       0.0444
     40 H          -4.7617   -0.5202    1.2851 H       1  UNL11       0.0444
     41 H          -5.2617    1.9564    1.2498 H       1  UNL11       0.0278
     42 H          -6.5303    0.8681    0.6966 H       1  UNL11       0.0278
     43 H          -5.4437    3.1314   -0.6766 H       1  UNL11       0.0266
     44 H          -6.5519    1.9094   -1.3000 H       1  UNL11       0.0266
     45 H          -4.7836    2.0222   -2.8180 H       1  UNL11       0.0278
     46 H          -3.4871    2.0847   -1.6027 H       1  UNL11       0.0278
     47 H          -5.3698   -0.1334   -2.4753 H       1  UNL11       0.0444
     48 H          -3.5365   -0.0642   -2.6482 H       1  UNL11       0.0444
     49 H          -1.0351   -0.4198   -0.9948 H       1  UNL11       0.0644
@<TRIPOS>BOND
     1     1     2    2
     2     2     3   am
     3     2    14    1
     4     3     4    1
     5     3    29    1
     6     4     5   am
     7     4    30    1
     8     5     6    2
     9     5     7    1
    10     7     8   ar
    11     8     9   ar
    12     8    31    1
    13     9    10   ar
    14     9    32    1
    15    10    11   ar
    16    10    33    1
    17    11    12   ar
    18    11    34    1
    19    12    13    1
    20    12     7   ar
    21    13    35    1
    22    14    15   ar
    23    15    16   ar
    24    15    36    1
    25    16    17   ar
    26    16    37    1
    27    17    18   ar
    28    17    38    1
    29    18    19    1
    30    18    28   ar
    31    19    20    2
    32    19    21    2
    33    19    22    1
    34    22    23    1
    35    23    24    1
    36    23    39    1
    37    23    40    1
    38    24    25    1
    39    24    41    1
    40    24    42    1
    41    25    26    1
    42    25    43    1
    43    25    44    1
    44    26    27    1
    45    26    45    1
    46    26    46    1
    47    27    22    1
    48    27    47    1
    49    27    48    1
    50    28    14   ar
    51    28    49    1
@<TRIPOS>MOLECULE
*****
 49 51 0 0 0
SMALL
GASTEIGER

@<TRIPOS>ATOM
      1 O           2.3973    0.0114    0.8789 O.2     1  UNL11      -0.2687
      2 C           1.3246   -0.0559    0.2041 C.2     1  UNL11       0.2602
      3 N           1.2335    0.7230   -0.9542 N.am    1  UNL11      -0.2301
      4 N           0.1042    0.7771   -1.8131 N.am    1  UNL11      -0.2300
      5 C           0.2393    1.0230   -3.1919 C.2     1  UNL11       0.2637
      6 O          -0.8450    1.0594   -3.8458 O.2     1  UNL11      -0.2685
      7 C           1.5574    1.2152   -3.7871 C.ar    1  UNL11       0.0795
      8 C           1.7126    1.4703   -5.1260 C.ar    1  UNL11      -0.0460
      9 C           2.9336    1.6499   -5.7339 C.ar    1  UNL11      -0.0608
     10 C           4.0687    1.5747   -4.9850 C.ar    1  UNL11      -0.0583
     11 C           3.9754    1.3233   -3.6460 C.ar    1  UNL11      -0.0194
     12 C           2.7294    1.1398   -3.0225 C.ar    1  UNL11       0.1290
     13 O           2.7249    0.8964   -1.6926 O.3     1  UNL11      -0.5060
     14 C           0.2305   -0.9314    0.6477 C.ar    1  UNL11       0.0400
     15 C           0.3225   -1.6964    1.7869 C.ar    1  UNL11      -0.0495
     16 C          -0.7007   -2.5389    2.2165 C.ar    1  UNL11      -0.0592
     17 C          -1.8632   -2.6279    1.4858 C.ar    1  UNL11      -0.0353
     18 C          -1.9589   -1.8535    0.3307 C.ar    1  UNL11       0.1062
     19 S          -3.4492   -1.9812   -0.5892 S.O2    1  UNL11       0.0609
     20 O          -3.6851   -0.6159   -1.2181 O.2     1  UNL11      -0.1528
     21 O          -4.6215   -2.1941    0.3398 O.2     1  UNL11      -0.1528
     22 N          -3.4340   -3.1545   -1.7616 N.3     1  UNL11      -0.1766
     23 C          -3.4532   -4.4738   -1.2869 C.3     1  UNL11       0.0205
     24 C          -3.0792   -5.5457   -2.2588 C.3     1  UNL11      -0.0385
     25 C          -3.5914   -5.3335   -3.6363 C.3     1  UNL11      -0.0506
     26 C          -4.4552   -4.1273   -3.7540 C.3     1  UNL11      -0.0385
     27 C          -3.8163   -2.9041   -3.0776 C.3     1  UNL11       0.0205
     28 C          -0.9322   -1.0176   -0.0853 C.ar    1  UNL11      -0.0232
     29 H           2.0424    1.3212   -1.2406 H       1  UNL11       0.1731
     30 H          -0.7964    0.6189   -1.3340 H       1  UNL11       0.1731
     31 H           0.8510    1.5391   -5.7540 H       1  UNL11       0.0626
     32 H           2.9666    1.8465   -6.7992 H       1  UNL11       0.0618
     33 H           5.0251    1.7197   -5.4912 H       1  UNL11       0.0619
     34 H           4.9037    1.2731   -3.0875 H       1  UNL11       0.0654
     35 H           2.0554    0.7335   -1.0116 H       1  UNL11       0.2922
     36 H           1.2176   -1.6403    2.3763 H       1  UNL11       0.0625
     37 H          -0.6092   -3.1284    3.1130 H       1  UNL11       0.0618
     38 H          -2.6931   -3.2561    1.7583 H       1  UNL11       0.0637
     39 H          -4.5185   -4.7058   -0.9713 H       1  UNL11       0.0444
     40 H          -2.7798   -4.6056   -0.4027 H       1  UNL11       0.0444
     41 H          -3.5413   -6.5085   -1.8806 H       1  UNL11       0.0278
     42 H          -1.9857   -5.7714   -2.2499 H       1  UNL11       0.0278
     43 H          -4.1879   -6.1952   -4.0273 H       1  UNL11       0.0266
     44 H          -2.7159   -5.2692   -4.3201 H       1  UNL11       0.0266
     45 H          -4.4935   -3.8548   -4.8523 H       1  UNL11       0.0278
     46 H          -5.4977   -4.2652   -3.4435 H       1  UNL11       0.0278
     47 H          -2.9055   -2.7076   -3.7256 H       1  UNL11       0.0444
     48 H          -4.5513   -2.0865   -3.1769 H       1  UNL11       0.0444
     49 H          -1.0351   -0.4198   -0.9948 H       1  UNL11       0.0644
@<TRIPOS>BOND
     1     1     2    2
     2     2     3   am
     3     2    14    1
     4     3     4    1
     5     3    29    1
     6     4     5   am
     7     4    30    1
     8     5     6    2
     9     5     7    1
    10     7     8   ar
    11     8     9   ar
    12     8    31    1
    13     9    10   ar
    14     9    32    1
    15    10    11   ar
    16    10    33    1
    17    11    12   ar
    18    11    34    1
    19    12    13    1
    20    12     7   ar
    21    13    35    1
    22    14    15   ar
    23    15    16   ar
    24    15    36    1
    25    16    17   ar
    26    16    37    1
    27    17    18   ar
    28    17    38    1
    29    18    19    1
    30    18    28   ar
    31    19    20    2
    32    19    21    2
    33    19    22    1
    34    22    23    1
    35    23    24    1
    36    23    39    1
    37    23    40    1
    38    24    25    1
    39    24    41    1
    40    24    42    1
    41    25    26    1
    42    25    43    1
    43    25    44    1
    44    26    27    1
    45    26    45    1
    46    26    46    1
    47    27    22    1
    48    27    47    1
    49    27    48    1
    50    28    14   ar
    51    28    49    1
@<TRIPOS>MOLECULE
*****
 49 51 0 0 0
SMALL
GASTEIGER

@<TRIPOS>ATOM
      1 O           1.0660    1.0080   -0.4377 O.2     1  UNL11      -0.2687
      2 C           1.3246   -0.0559    0.2041 C.2     1  UNL11       0.2602
      3 N           2.6672   -0.3502    0.4639 N.am    1  UNL11      -0.2301
      4 N           3.1304   -1.5015    1.1536 N.am    1  UNL11      -0.2300
      5 C           2.4224   -2.7168    1.1156 C.2     1  UNL11       0.2637
      6 O           1.3572   -2.7036    0.4303 O.2     1  UNL11      -0.2685
      7 C           2.9161   -3.8875    1.8329 C.ar    1  UNL11       0.0795
      8 C           4.0765   -3.8480    2.5634 C.ar    1  UNL11      -0.0460
      9 C           4.5860   -4.9266    3.2486 C.ar    1  UNL11      -0.0608
     10 C           3.9187   -6.1134    3.2152 C.ar    1  UNL11      -0.0583
     11 C           2.7572   -6.2119    2.5038 C.ar    1  UNL11      -0.0194
     12 C           2.2344   -5.1115    1.8034 C.ar    1  UNL11       0.1290
     13 O           1.0788   -5.2931    1.1253 O.3     1  UNL11      -0.5060
     14 C           0.2305   -0.9314    0.6477 C.ar    1  UNL11       0.0400
     15 C           0.3225   -1.6964    1.7869 C.ar    1  UNL11      -0.0495
     16 C          -0.7007   -2.5389    2.2165 C.ar    1  UNL11      -0.0592
     17 C          -1.8632   -2.6279    1.4858 C.ar    1  UNL11      -0.0353
     18 C          -1.9589   -1.8535    0.3307 C.ar    1  UNL11       0.1062
     19 S          -3.4492   -1.9812   -0.5892 S.O2    1  UNL11       0.0609
     20 O          -3.6851   -0.6159   -1.2181 O.2     1  UNL11      -0.1528
     21 O          -4.6215   -2.1941    0.3398 O.2     1  UNL11      -0.1528
     22 N          -3.4340   -3.1545   -1.7616 N.3     1  UNL11      -0.1766
     23 C          -2.6142   -2.8844   -2.8666 C.3     1  UNL11       0.0205
     24 C          -2.8380   -3.7122   -4.0906 C.3     1  UNL11      -0.0385
     25 C          -3.1305   -5.1428   -3.8211 C.3     1  UNL11      -0.0506
     26 C          -3.0569   -5.4870   -2.3751 C.3     1  UNL11      -0.0385
     27 C          -3.8185   -4.4698   -1.5107 C.3     1  UNL11       0.0205
     28 C          -0.9322   -1.0176   -0.0853 C.ar    1  UNL11      -0.0232
     29 H           3.4132    0.3088    0.1421 H       1  UNL11       0.1731
     30 H           4.0145   -1.3570    1.6666 H       1  UNL11       0.1731
     31 H           4.6344   -2.9386    2.6198 H       1  UNL11       0.0626
     32 H           5.5111   -4.8093    3.8008 H       1  UNL11       0.0618
     33 H           4.3444   -6.9544    3.7662 H       1  UNL11       0.0619
     34 H           2.2578   -7.1747    2.5053 H       1  UNL11       0.0654
     35 H           0.4977   -4.7504    0.5718 H       1  UNL11       0.2922
     36 H           1.2176   -1.6403    2.3763 H       1  UNL11       0.0625
     37 H          -0.6092   -3.1284    3.1130 H       1  UNL11       0.0618
     38 H          -2.6931   -3.2561    1.7583 H       1  UNL11       0.0637
     39 H          -1.5426   -3.0875   -2.5524 H       1  UNL11       0.0444
     40 H          -2.6969   -1.8169   -3.1925 H       1  UNL11       0.0444
     41 H          -1.8770   -3.6800   -4.6897 H       1  UNL11       0.0278
     42 H          -3.5833   -3.2574   -4.7866 H       1  UNL11       0.0278
     43 H          -2.4430   -5.8461   -4.3541 H       1  UNL11       0.0266
     44 H          -4.1370   -5.3700   -4.2377 H       1  UNL11       0.0266
     45 H          -3.6253   -6.4565   -2.2372 H       1  UNL11       0.0278
     46 H          -2.0480   -5.6742   -1.9886 H       1  UNL11       0.0278
     47 H          -4.8972   -4.6350   -1.8224 H       1  UNL11       0.0444
     48 H          -3.6605   -4.7851   -0.4646 H       1  UNL11       0.0444
     49 H          -1.0351   -0.4198   -0.9948 H       1  UNL11       0.0644
@<TRIPOS>BOND
     1     1     2    2
     2     2     3   am
     3     2    14    1
     4     3     4    1
     5     3    29    1
     6     4     5   am
     7     4    30    1
     8     5     6    2
     9     5     7    1
    10     7     8   ar
    11     8     9   ar
    12     8    31    1
    13     9    10   ar
    14     9    32    1
    15    10    11   ar
    16    10    33    1
    17    11    12   ar
    18    11    34    1
    19    12    13    1
    20    12     7   ar
    21    13    35    1
    22    14    15   ar
    23    15    16   ar
    24    15    36    1
    25    16    17   ar
    26    16    37    1
    27    17    18   ar
    28    17    38    1
    29    18    19    1
    30    18    28   ar
    31    19    20    2
    32    19    21    2
    33    19    22    1
    34    22    23    1
    35    23    24    1
    36    23    39    1
    37    23    40    1
    38    24    25    1
    39    24    41    1
    40    24    42    1
    41    25    26    1
    42    25    43    1
    43    25    44    1
    44    26    27    1
    45    26    45    1
    46    26    46    1
    47    27    22    1
    48    27    47    1
    49    27    48    1
    50    28    14   ar
    51    28    49    1
@<TRIPOS>MOLECULE
*****
 49 51 0 0 0
SMALL
GASTEIGER

@<TRIPOS>ATOM
      1 O           1.0660    1.0080   -0.4377 O.2     1  UNL11      -0.2687
      2 C           1.3246   -0.0559    0.2041 C.2     1  UNL11       0.2602
      3 N           2.6672   -0.3502    0.4639 N.am    1  UNL11      -0.2301
      4 N           3.1304   -1.5015    1.1536 N.am    1  UNL11      -0.2300
      5 C           2.3522   -2.1291    2.1437 C.2     1  UNL11       0.2637
      6 O           1.2256   -1.5954    2.3685 O.2     1  UNL11      -0.2685
      7 C           2.8484   -3.3108    2.8410 C.ar    1  UNL11       0.0795
      8 C           4.0787   -3.8488    2.5606 C.ar    1  UNL11      -0.0460
      9 C           4.5854   -4.9653    3.1844 C.ar    1  UNL11      -0.0608
     10 C           3.8419   -5.5911    4.1387 C.ar    1  UNL11      -0.0583
     11 C           2.6088   -5.0999    4.4596 C.ar    1  UNL11      -0.0194
     12 C           2.0891   -3.9593    3.8243 C.ar    1  UNL11       0.1290
     13 O           0.8611   -3.5377    4.2016 O.3     1  UNL11      -0.5060
     14 C           0.2305   -0.9314    0.6477 C.ar    1  UNL11       0.0400
     15 C           0.3225   -1.6964    1.7869 C.ar    1  UNL11      -0.0495
     16 C          -0.7007   -2.5389    2.2165 C.ar    1  UNL11      -0.0592
     17 C          -1.8632   -2.6279    1.4858 C.ar    1  UNL11      -0.0353
     18 C          -1.9589   -1.8535    0.3307 C.ar    1  UNL11       0.1062
     19 S          -3.4492   -1.9812   -0.5892 S.O2    1  UNL11       0.0609
     20 O          -4.0785   -0.5959   -0.5837 O.2     1  UNL11      -0.1528
     21 O          -4.4377   -2.8650    0.1350 O.2     1  UNL11      -0.1528
     22 N          -3.2504   -2.5113   -2.1483 N.3     1  UNL11      -0.1766
     23 C          -3.3246   -3.9009   -2.3209 C.3     1  UNL11       0.0205
     24 C          -2.8013   -4.4493   -3.6089 C.3     1  UNL11      -0.0385
     25 C          -3.1090   -3.6198   -4.8014 C.3     1  UNL11      -0.0506
     26 C          -3.9592   -2.4404   -4.4832 C.3     1  UNL11      -0.0385
     27 C          -3.4390   -1.6822   -3.2517 C.3     1  UNL11       0.0205
     28 C          -0.9322   -1.0176   -0.0853 C.ar    1  UNL11      -0.0232
     29 H           3.4132    0.3088    0.1421 H       1  UNL11       0.1731
     30 H           4.0669   -1.8200    0.8586 H       1  UNL11       0.1731
     31 H           4.6985   -3.3921    1.8198 H       1  UNL11       0.0626
     32 H           5.5677   -5.3254    2.9014 H       1  UNL11       0.0618
     33 H           4.2659   -6.4757    4.6179 H       1  UNL11       0.0619
     34 H           2.0515   -5.6280    5.2257 H       1  UNL11       0.0654
     35 H           0.2617   -2.8165    3.9584 H       1  UNL11       0.2922
     36 H           1.2176   -1.6403    2.3763 H       1  UNL11       0.0625
     37 H          -0.6092   -3.1284    3.1130 H       1  UNL11       0.0618
     38 H          -2.6931   -3.2561    1.7583 H       1  UNL11       0.0637
     39 H          -4.4220   -4.1890   -2.2899 H       1  UNL11       0.0444
     40 H          -2.7862   -4.4487   -1.5069 H       1  UNL11       0.0444
     41 H          -3.3033   -5.4524   -3.7675 H       1  UNL11       0.0278
     42 H          -1.7184   -4.7161   -3.5539 H       1  UNL11       0.0278
     43 H          -3.6327   -4.1837   -5.6131 H       1  UNL11       0.0266
     44 H          -2.1438   -3.3077   -5.2588 H       1  UNL11       0.0266
     45 H          -3.8397   -1.7072   -5.3377 H       1  UNL11       0.0278
     46 H          -5.0344   -2.6434   -4.4114 H       1  UNL11       0.0278
     47 H          -2.4456   -1.2697   -3.6135 H       1  UNL11       0.0444
     48 H          -4.1605   -0.8658   -3.0735 H       1  UNL11       0.0444
     49 H          -1.0351   -0.4198   -0.9948 H       1  UNL11       0.0644
@<TRIPOS>BOND
     1     1     2    2
     2     2     3   am
     3     2    14    1
     4     3     4    1
     5     3    29    1
     6     4     5   am
     7     4    30    1
     8     5     6    2
     9     5     7    1
    10     7     8   ar
    11     8     9   ar
    12     8    31    1
    13     9    10   ar
    14     9    32    1
    15    10    11   ar
    16    10    33    1
    17    11    12   ar
    18    11    34    1
    19    12    13    1
    20    12     7   ar
    21    13    35    1
    22    14    15   ar
    23    15    16   ar
    24    15    36    1
    25    16    17   ar
    26    16    37    1
    27    17    18   ar
    28    17    38    1
    29    18    19    1
    30    18    28   ar
    31    19    20    2
    32    19    21    2
    33    19    22    1
    34    22    23    1
    35    23    24    1
    36    23    39    1
    37    23    40    1
    38    24    25    1
    39    24    41    1
    40    24    42    1
    41    25    26    1
    42    25    43    1
    43    25    44    1
    44    26    27    1
    45    26    45    1
    46    26    46    1
    47    27    22    1
    48    27    47    1
    49    27    48    1
    50    28    14   ar
    51    28    49    1
@<TRIPOS>MOLECULE
*****
 49 51 0 0 0
SMALL
GASTEIGER

@<TRIPOS>ATOM
      1 O           1.1920    0.6433   -0.8466 O.2     1  UNL11      -0.2687
      2 C           1.3246   -0.0559    0.2041 C.2     1  UNL11       0.2602
      3 N           2.5315    0.0426    0.9044 N.am    1  UNL11      -0.2301
      4 N           2.8492   -0.6777    2.0859 N.am    1  UNL11      -0.2300
      5 C           3.7106   -0.1458    3.0631 C.2     1  UNL11       0.2637
      6 O           4.1732    1.0060    2.8103 O.2     1  UNL11      -0.2685
      7 C           4.0244   -0.9039    4.2696 C.ar    1  UNL11       0.0795
      8 C           4.0385   -2.2756    4.2748 C.ar    1  UNL11      -0.0460
      9 C           4.3197   -3.0333    5.3879 C.ar    1  UNL11      -0.0608
     10 C           4.6032   -2.4094    6.5650 C.ar    1  UNL11      -0.0583
     11 C           4.6041   -1.0449    6.6195 C.ar    1  UNL11      -0.0194
     12 C           4.3176   -0.2686    5.4837 C.ar    1  UNL11       0.1290
     13 O           4.3409    1.0761    5.6228 O.3     1  UNL11      -0.5060
     14 C           0.2305   -0.9314    0.6477 C.ar    1  UNL11       0.0400
     15 C           0.3225   -1.6964    1.7869 C.ar    1  UNL11      -0.0495
     16 C          -0.7007   -2.5389    2.2165 C.ar    1  UNL11      -0.0592
     17 C          -1.8632   -2.6279    1.4858 C.ar    1  UNL11      -0.0353
     18 C          -1.9589   -1.8535    0.3307 C.ar    1  UNL11       0.1062
     19 S          -3.4492   -1.9812   -0.5892 S.O2    1  UNL11       0.0609
     20 O          -3.3111   -1.0278   -1.7669 O.2     1  UNL11      -0.1528
     21 O          -4.6096   -1.4454    0.2165 O.2     1  UNL11      -0.1528
     22 N          -3.7928   -3.5109   -1.1307 N.3     1  UNL11      -0.1766
     23 C          -4.5633   -4.2941   -0.2595 C.3     1  UNL11       0.0205
     24 C          -4.5933   -5.7649   -0.5230 C.3     1  UNL11      -0.0385
     25 C          -4.6471   -6.1317   -1.9608 C.3     1  UNL11      -0.0506
     26 C          -4.7478   -4.9481   -2.8574 C.3     1  UNL11      -0.0385
     27 C          -3.7301   -3.8609   -2.4777 C.3     1  UNL11       0.0205
     28 C          -0.9322   -1.0176   -0.0853 C.ar    1  UNL11      -0.0232
     29 H           3.2781    0.6897    0.5605 H       1  UNL11       0.1731
     30 H           2.3933   -1.6016    2.1505 H       1  UNL11       0.1731
     31 H           3.8230   -2.8094    3.3747 H       1  UNL11       0.0626
     32 H           4.3081   -4.1139    5.3050 H       1  UNL11       0.0618
     33 H           4.8218   -3.0332    7.4340 H       1  UNL11       0.0619
     34 H           4.8364   -0.5895    7.5760 H       1  UNL11       0.0654
     35 H           4.1922    1.8432    5.0500 H       1  UNL11       0.2922
     36 H           1.2176   -1.6403    2.3763 H       1  UNL11       0.0625
     37 H          -0.6092   -3.1284    3.1130 H       1  UNL11       0.0618
     38 H          -2.6931   -3.2561    1.7583 H       1  UNL11       0.0637
     39 H          -5.6396   -3.9455   -0.3511 H       1  UNL11       0.0444
     40 H          -4.2361   -4.1743    0.8041 H       1  UNL11       0.0444
     41 H          -5.5395   -6.1654   -0.0456 H       1  UNL11       0.0278
     42 H          -3.7865   -6.3150    0.0186 H       1  UNL11       0.0278
     43 H          -5.5043   -6.8030   -2.2175 H       1  UNL11       0.0266
     44 H          -3.7422   -6.7362   -2.1932 H       1  UNL11       0.0266
     45 H          -4.4271   -5.2873   -3.8890 H       1  UNL11       0.0278
     46 H          -5.7568   -4.5361   -2.9783 H       1  UNL11       0.0278
     47 H          -2.7363   -4.3554   -2.7141 H       1  UNL11       0.0444
     48 H          -3.9206   -3.0170   -3.1635 H       1  UNL11       0.0444
     49 H          -1.0351   -0.4198   -0.9948 H       1  UNL11       0.0644
@<TRIPOS>BOND
     1     1     2    2
     2     2     3   am
     3     2    14    1
     4     3     4    1
     5     3    29    1
     6     4     5   am
     7     4    30    1
     8     5     6    2
     9     5     7    1
    10     7     8   ar
    11     8     9   ar
    12     8    31    1
    13     9    10   ar
    14     9    32    1
    15    10    11   ar
    16    10    33    1
    17    11    12   ar
    18    11    34    1
    19    12    13    1
    20    12     7   ar
    21    13    35    1
    22    14    15   ar
    23    15    16   ar
    24    15    36    1
    25    16    17   ar
    26    16    37    1
    27    17    18   ar
    28    17    38    1
    29    18    19    1
    30    18    28   ar
    31    19    20    2
    32    19    21    2
    33    19    22    1
    34    22    23    1
    35    23    24    1
    36    23    39    1
    37    23    40    1
    38    24    25    1
    39    24    41    1
    40    24    42    1
    41    25    26    1
    42    25    43    1
    43    25    44    1
    44    26    27    1
    45    26    45    1
    46    26    46    1
    47    27    22    1
    48    27    47    1
    49    27    48    1
    50    28    14   ar
    51    28    49    1
@<TRIPOS>MOLECULE
*****
 49 51 0 0 0
SMALL
GASTEIGER

@<TRIPOS>ATOM
      1 O           1.4928    0.1731   -1.0328 O.2     1  UNL11      -0.2687
      2 C           1.3246   -0.0559    0.2041 C.2     1  UNL11       0.2602
      3 N           2.2075    0.5490    1.1048 N.am    1  UNL11      -0.2301
      4 N           3.2823    1.4032    0.7430 N.am    1  UNL11      -0.2300
      5 C           3.9497    1.2656   -0.4881 C.2     1  UNL11       0.2637
      6 O           3.5244    0.3354   -1.2354 O.2     1  UNL11      -0.2685
      7 C           5.0526    2.1538   -0.8392 C.ar    1  UNL11       0.0795
      8 C           6.0827    1.7392   -1.6447 C.ar    1  UNL11      -0.0460
      9 C           7.1474    2.5363   -1.9960 C.ar    1  UNL11      -0.0608
     10 C           7.2056    3.8147   -1.5299 C.ar    1  UNL11      -0.0583
     11 C           6.2075    4.2825   -0.7237 C.ar    1  UNL11      -0.0194
     12 C           5.1185    3.4704   -0.3637 C.ar    1  UNL11       0.1290
     13 O           4.1725    4.0110    0.4368 O.3     1  UNL11      -0.5060
     14 C           0.2305   -0.9314    0.6477 C.ar    1  UNL11       0.0400
     15 C           0.3225   -1.6964    1.7869 C.ar    1  UNL11      -0.0495
     16 C          -0.7007   -2.5389    2.2165 C.ar    1  UNL11      -0.0592
     17 C          -1.8632   -2.6279    1.4858 C.ar    1  UNL11      -0.0353
     18 C          -1.9589   -1.8535    0.3307 C.ar    1  UNL11       0.1062
     19 S          -3.4492   -1.9812   -0.5892 S.O2    1  UNL11       0.0609
     20 O          -4.3107   -3.0104    0.1277 O.2     1  UNL11      -0.1528
     21 O          -3.1752   -2.5772   -1.9503 O.2     1  UNL11      -0.1528
     22 N          -4.2803   -0.5549   -0.7513 N.3     1  UNL11      -0.1766
     23 C          -3.9476    0.2054   -1.8816 C.3     1  UNL11       0.0205
     24 C          -4.3859    1.6341   -1.8861 C.3     1  UNL11      -0.0385
     25 C          -5.7344    1.8661   -1.3096 C.3     1  UNL11      -0.0506
     26 C          -6.4215    0.6057   -0.9169 C.3     1  UNL11      -0.0385
     27 C          -5.4946   -0.3180   -0.1110 C.3     1  UNL11       0.0205
     28 C          -0.9322   -1.0176   -0.0853 C.ar    1  UNL11      -0.0232
     29 H           2.0981    0.3778    2.1309 H       1  UNL11       0.1731
     30 H           3.5122    2.1144    1.4550 H       1  UNL11       0.1731
     31 H           6.0805    0.7446   -2.0350 H       1  UNL11       0.0626
     32 H           7.9205    2.1286   -2.6368 H       1  UNL11       0.0618
     33 H           8.0613    4.4265   -1.8221 H       1  UNL11       0.0619
     34 H           6.2928    5.3064   -0.3764 H       1  UNL11       0.0654
     35 H           3.3423    3.7159    0.8395 H       1  UNL11       0.2922
     36 H           1.2176   -1.6403    2.3763 H       1  UNL11       0.0625
     37 H          -0.6092   -3.1284    3.1130 H       1  UNL11       0.0618
     38 H          -2.6931   -3.2561    1.7583 H       1  UNL11       0.0637
     39 H          -4.4579   -0.2734   -2.7753 H       1  UNL11       0.0444
     40 H          -2.8432    0.2172   -2.0623 H       1  UNL11       0.0444
     41 H          -4.4308    1.9610   -2.9700 H       1  UNL11       0.0278
     42 H          -3.6209    2.3197   -1.4484 H       1  UNL11       0.0278
     43 H          -6.4273    2.4078   -2.0008 H       1  UNL11       0.0266
     44 H          -5.6207    2.5499   -0.4390 H       1  UNL11       0.0266
     45 H          -7.2406    0.8894   -0.1884 H       1  UNL11       0.0278
     46 H          -6.9199    0.0696   -1.7334 H       1  UNL11       0.0278
     47 H          -5.3310    0.2670    0.8478 H       1  UNL11       0.0444
     48 H          -6.0781   -1.2346    0.0843 H       1  UNL11       0.0444
     49 H          -1.0351   -0.4198   -0.9948 H       1  UNL11       0.0644
@<TRIPOS>BOND
     1     1     2    2
     2     2     3   am
     3     2    14    1
     4     3     4    1
     5     3    29    1
     6     4     5   am
     7     4    30    1
     8     5     6    2
     9     5     7    1
    10     7     8   ar
    11     8     9   ar
    12     8    31    1
    13     9    10   ar
    14     9    32    1
    15    10    11   ar
    16    10    33    1
    17    11    12   ar
    18    11    34    1
    19    12    13    1
    20    12     7   ar
    21    13    35    1
    22    14    15   ar
    23    15    16   ar
    24    15    36    1
    25    16    17   ar
    26    16    37    1
    27    17    18   ar
    28    17    38    1
    29    18    19    1
    30    18    28   ar
    31    19    20    2
    32    19    21    2
    33    19    22    1
    34    22    23    1
    35    23    24    1
    36    23    39    1
    37    23    40    1
    38    24    25    1
    39    24    41    1
    40    24    42    1
    41    25    26    1
    42    25    43    1
    43    25    44    1
    44    26    27    1
    45    26    45    1
    46    26    46    1
    47    27    22    1
    48    27    47    1
    49    27    48    1
    50    28    14   ar
    51    28    49    1
