@<TRIPOS>MOLECULE
*****
 45 47 0 0 0
SMALL
GASTEIGER

@<TRIPOS>ATOM
      1 O          -0.5212    1.0920    0.4883 O.2     1  UNL11      -0.2687
      2 C           0.3168    2.0218    0.2359 C.2     1  UNL11       0.2601
      3 N           1.6701    1.6303    0.1486 N.am    1  UNL11      -0.2301
      4 N           2.1764    0.3430    0.3091 N.am    1  UNL11      -0.2301
      5 C           1.5174   -0.8451    0.0212 C.2     1  UNL11       0.2602
      6 O           2.1257   -1.9498    0.2411 O.2     1  UNL11      -0.2687
      7 C           0.1718   -0.9691   -0.5154 C.ar    1  UNL11       0.0400
      8 C          -0.2116   -2.0205   -1.3236 C.ar    1  UNL11      -0.0495
      9 C          -1.5022   -2.1668   -1.8220 C.ar    1  UNL11      -0.0592
     10 C          -2.4445   -1.1910   -1.4768 C.ar    1  UNL11      -0.0350
     11 C          -2.0899   -0.1310   -0.6719 C.ar    1  UNL11       0.1092
     12 S          -3.3361    1.0275   -0.2783 S.O2    1  UNL11       0.0724
     13 O          -3.0738    1.5929    1.0899 O.2     1  UNL11      -0.1500
     14 O          -4.6661    0.2934   -0.3065 O.2     1  UNL11      -0.1500
     15 N          -3.4145    2.3053   -1.4014 N.pl3   1  UNL11      -0.2163
     16 C          -2.2408    2.7094   -2.0815 C.ar    1  UNL11       0.0480
     17 C          -1.3940    3.6859   -1.5991 C.ar    1  UNL11      -0.0393
     18 C          -0.2625    4.1167   -2.2106 C.ar    1  UNL11      -0.0600
     19 C           0.0979    3.5502   -3.4154 C.ar    1  UNL11      -0.0616
     20 C          -0.7138    2.5686   -3.9437 C.ar    1  UNL11      -0.0600
     21 C          -1.8567    2.1513   -3.3010 C.ar    1  UNL11      -0.0393
     22 C          -0.8058   -0.0345   -0.2084 C.ar    1  UNL11      -0.0229
     23 C          -0.1371    3.3800    0.0547 C.ar    1  UNL11       0.0382
     24 C           0.4976    4.3018   -0.7702 C.ar    1  UNL11      -0.0496
     25 C           0.0371    5.6014   -0.9346 C.ar    1  UNL11      -0.0610
     26 C          -1.0870    6.0094   -0.2646 C.ar    1  UNL11      -0.0617
     27 C          -1.7441    5.1214    0.5644 C.ar    1  UNL11      -0.0610
     28 C          -1.2638    3.8384    0.7075 C.ar    1  UNL11      -0.0496
     29 H           2.3548    2.4204   -0.0675 H       1  UNL11       0.1731
     30 H           3.1719    0.2808    0.6947 H       1  UNL11       0.1731
     31 H           0.5020   -2.7675   -1.5967 H       1  UNL11       0.0625
     32 H          -1.8013   -2.9906   -2.4532 H       1  UNL11       0.0618
     33 H          -3.4434   -1.3122   -1.8661 H       1  UNL11       0.0637
     34 H          -4.3014    2.8260   -1.6257 H       1  UNL11       0.1737
     35 H          -1.6602    4.1487   -0.6536 H       1  UNL11       0.0636
     36 H           0.3552    4.8900   -1.7781 H       1  UNL11       0.0618
     37 H           1.0036    3.9193   -3.8677 H       1  UNL11       0.0618
     38 H          -0.4060    2.1451   -4.8897 H       1  UNL11       0.0618
     39 H          -2.4610    1.3855   -3.7402 H       1  UNL11       0.0636
     40 H          -0.5499    0.7973    0.4099 H       1  UNL11       0.0645
     41 H           1.3865    3.9635   -1.2937 H       1  UNL11       0.0625
     42 H           0.5529    6.3097   -1.5903 H       1  UNL11       0.0618
     43 H          -1.4313    7.0399   -0.4131 H       1  UNL11       0.0618
     44 H          -2.6218    5.4614    1.0794 H       1  UNL11       0.0618
     45 H          -1.7984    3.1360    1.3649 H       1  UNL11       0.0625
@<TRIPOS>BOND
     1     1     2    2
     2     2     3   am
     3     2    23    1
     4     3     4    1
     5     3    29    1
     6     4     5   am
     7     4    30    1
     8     5     6    2
     9     5     7    1
    10     7     8   ar
    11     8     9   ar
    12     8    31    1
    13     9    10   ar
    14     9    32    1
    15    10    11   ar
    16    10    33    1
    17    11    12    1
    18    11    22   ar
    19    12    13    2
    20    12    14    2
    21    12    15    1
    22    15    16    1
    23    15    34    1
    24    16    17   ar
    25    17    18   ar
    26    17    35    1
    27    18    19   ar
    28    18    36    1
    29    19    20   ar
    30    19    37    1
    31    20    21   ar
    32    20    38    1
    33    21    16   ar
    34    21    39    1
    35    22     7   ar
    36    22    40    1
    37    23    24   ar
    38    24    25   ar
    39    24    41    1
    40    25    26   ar
    41    25    42    1
    42    26    27   ar
    43    26    43    1
    44    27    28   ar
    45    27    44    1
    46    28    23   ar
    47    28    45    1
@<TRIPOS>MOLECULE
*****
 45 47 0 0 0
SMALL
GASTEIGER

@<TRIPOS>ATOM
      1 O          -0.3832    2.8567    1.3040 O.2     1  UNL11      -0.2687
      2 C           0.1415    1.8698    0.6866 C.2     1  UNL11       0.2601
      3 N           1.2355    1.2485    1.3267 N.am    1  UNL11      -0.2301
      4 N           1.9768    0.1707    0.8493 N.am    1  UNL11      -0.2301
      5 C           1.5174   -0.8451    0.0212 C.2     1  UNL11       0.2602
      6 O           2.3315   -1.7739   -0.3156 O.2     1  UNL11      -0.2687
      7 C           0.1718   -0.9691   -0.5154 C.ar    1  UNL11       0.0400
      8 C          -0.2116   -2.0205   -1.3236 C.ar    1  UNL11      -0.0495
      9 C          -1.5022   -2.1668   -1.8220 C.ar    1  UNL11      -0.0592
     10 C          -2.4445   -1.1910   -1.4768 C.ar    1  UNL11      -0.0350
     11 C          -2.0899   -0.1310   -0.6719 C.ar    1  UNL11       0.1092
     12 S          -3.3361    1.0275   -0.2783 S.O2    1  UNL11       0.0724
     13 O          -3.0738    1.5929    1.0899 O.2     1  UNL11      -0.1500
     14 O          -4.6661    0.2934   -0.3065 O.2     1  UNL11      -0.1500
     15 N          -3.4145    2.3053   -1.4014 N.pl3   1  UNL11      -0.2163
     16 C          -3.0405    2.0754   -2.7470 C.ar    1  UNL11       0.0480
     17 C          -1.7516    2.2508   -3.2069 C.ar    1  UNL11      -0.0393
     18 C          -1.3394    2.0527   -4.4838 C.ar    1  UNL11      -0.0600
     19 C          -2.2617    1.6408   -5.4230 C.ar    1  UNL11      -0.0616
     20 C          -3.5656    1.4502   -5.0170 C.ar    1  UNL11      -0.0600
     21 C          -3.9558    1.6593   -3.7141 C.ar    1  UNL11      -0.0393
     22 C          -0.8058   -0.0345   -0.2084 C.ar    1  UNL11      -0.0229
     23 C          -0.3866    1.4458   -0.5881 C.ar    1  UNL11       0.0382
     24 C           0.1192    0.3737   -1.3144 C.ar    1  UNL11      -0.0496
     25 C          -0.4112   -0.0205   -2.5356 C.ar    1  UNL11      -0.0610
     26 C          -1.4765    0.6632   -3.0614 C.ar    1  UNL11      -0.0617
     27 C          -2.0058    1.7343   -2.3684 C.ar    1  UNL11      -0.0610
     28 C          -1.4586    2.1021   -1.1591 C.ar    1  UNL11      -0.0496
     29 H           1.5043    1.6699    2.2700 H       1  UNL11       0.1731
     30 H           2.9988    0.1357    1.1622 H       1  UNL11       0.1731
     31 H           0.5020   -2.7675   -1.5967 H       1  UNL11       0.0625
     32 H          -1.8013   -2.9906   -2.4532 H       1  UNL11       0.0618
     33 H          -3.4434   -1.3122   -1.8661 H       1  UNL11       0.0637
     34 H          -3.7299    3.2779   -1.1514 H       1  UNL11       0.1737
     35 H          -1.0093    2.5786   -2.4854 H       1  UNL11       0.0636
     36 H          -0.3124    2.2122   -4.7781 H       1  UNL11       0.0618
     37 H          -1.8938    1.4937   -6.4249 H       1  UNL11       0.0618
     38 H          -4.2655    1.1291   -5.7760 H       1  UNL11       0.0618
     39 H          -4.9762    1.4991   -3.4352 H       1  UNL11       0.0636
     40 H          -0.5499    0.7973    0.4099 H       1  UNL11       0.0645
     41 H           0.9630   -0.1574   -0.8848 H       1  UNL11       0.0625
     42 H           0.0032   -0.8686   -3.0894 H       1  UNL11       0.0618
     43 H          -1.8783    0.3308   -4.0261 H       1  UNL11       0.0618
     44 H          -2.8394    2.2556   -2.7981 H       1  UNL11       0.0618
     45 H          -1.8917    2.9526   -0.6111 H       1  UNL11       0.0625
@<TRIPOS>BOND
     1     1     2    2
     2     2     3   am
     3     2    23    1
     4     3     4    1
     5     3    29    1
     6     4     5   am
     7     4    30    1
     8     5     6    2
     9     5     7    1
    10     7     8   ar
    11     8     9   ar
    12     8    31    1
    13     9    10   ar
    14     9    32    1
    15    10    11   ar
    16    10    33    1
    17    11    12    1
    18    11    22   ar
    19    12    13    2
    20    12    14    2
    21    12    15    1
    22    15    16    1
    23    15    34    1
    24    16    17   ar
    25    17    18   ar
    26    17    35    1
    27    18    19   ar
    28    18    36    1
    29    19    20   ar
    30    19    37    1
    31    20    21   ar
    32    20    38    1
    33    21    16   ar
    34    21    39    1
    35    22     7   ar
    36    22    40    1
    37    23    24   ar
    38    24    25   ar
    39    24    41    1
    40    25    26   ar
    41    25    42    1
    42    26    27   ar
    43    26    43    1
    44    27    28   ar
    45    27    44    1
    46    28    23   ar
    47    28    45    1
@<TRIPOS>MOLECULE
*****
 45 47 0 0 0
SMALL
GASTEIGER

@<TRIPOS>ATOM
      1 O           0.4090    3.2885   -0.7824 O.2     1  UNL11      -0.2687
      2 C           0.7208    2.0506   -0.8077 C.2     1  UNL11       0.2601
      3 N           1.6701    1.6303    0.1486 N.am    1  UNL11      -0.2301
      4 N           2.1764    0.3430    0.3091 N.am    1  UNL11      -0.2301
      5 C           1.5174   -0.8451    0.0212 C.2     1  UNL11       0.2602
      6 O           2.1257   -1.9498    0.2411 O.2     1  UNL11      -0.2687
      7 C           0.1718   -0.9691   -0.5154 C.ar    1  UNL11       0.0400
      8 C          -0.2116   -2.0205   -1.3236 C.ar    1  UNL11      -0.0495
      9 C          -1.5022   -2.1668   -1.8220 C.ar    1  UNL11      -0.0592
     10 C          -2.4445   -1.1910   -1.4768 C.ar    1  UNL11      -0.0350
     11 C          -2.0899   -0.1310   -0.6719 C.ar    1  UNL11       0.1092
     12 S          -3.3361    1.0275   -0.2783 S.O2    1  UNL11       0.0724
     13 O          -2.9138    2.3907   -0.7517 O.2     1  UNL11      -0.1500
     14 O          -3.5084    1.0163    1.2313 O.2     1  UNL11      -0.1500
     15 N          -4.8356    0.6347   -0.9836 N.pl3   1  UNL11      -0.2163
     16 C          -4.9380    0.5284   -2.3914 C.ar    1  UNL11       0.0480
     17 C          -4.7351   -0.6554   -3.0701 C.ar    1  UNL11      -0.0393
     18 C          -4.8131   -0.8131   -4.4150 C.ar    1  UNL11      -0.0600
     19 C          -5.1195    0.2822   -5.1953 C.ar    1  UNL11      -0.0616
     20 C          -5.3321    1.4914   -4.5678 C.ar    1  UNL11      -0.0600
     21 C          -5.2460    1.6222   -3.2007 C.ar    1  UNL11      -0.0393
     22 C          -0.8058   -0.0345   -0.2084 C.ar    1  UNL11      -0.0229
     23 C           0.1117    1.1671   -1.7732 C.ar    1  UNL11       0.0382
     24 C          -0.8253    1.5804   -2.7134 C.ar    1  UNL11      -0.0496
     25 C          -1.3917    0.7129   -3.6379 C.ar    1  UNL11      -0.0610
     26 C          -1.0240   -0.6076   -3.6382 C.ar    1  UNL11      -0.0617
     27 C          -0.0959   -1.0551   -2.7184 C.ar    1  UNL11      -0.0610
     28 C           0.4489   -0.1710   -1.8136 C.ar    1  UNL11      -0.0496
     29 H           2.0231    2.3982    0.8009 H       1  UNL11       0.1731
     30 H           3.1719    0.2808    0.6947 H       1  UNL11       0.1731
     31 H           0.5020   -2.7675   -1.5967 H       1  UNL11       0.0625
     32 H          -1.8013   -2.9906   -2.4532 H       1  UNL11       0.0618
     33 H          -3.4434   -1.3122   -1.8661 H       1  UNL11       0.0637
     34 H          -5.7114    0.4633   -0.4254 H       1  UNL11       0.1737
     35 H          -4.4888   -1.5303   -2.4761 H       1  UNL11       0.0636
     36 H          -4.6389   -1.7707   -4.8835 H       1  UNL11       0.0618
     37 H          -5.1730    0.1145   -6.2583 H       1  UNL11       0.0618
     38 H          -5.5686    2.3315   -5.2060 H       1  UNL11       0.0618
     39 H          -5.4195    2.5762   -2.7485 H       1  UNL11       0.0636
     40 H          -0.5499    0.7973    0.4099 H       1  UNL11       0.0645
     41 H          -1.1062    2.6290   -2.7001 H       1  UNL11       0.0625
     42 H          -2.1272    1.0612   -4.3696 H       1  UNL11       0.0618
     43 H          -1.4841   -1.2717   -4.3797 H       1  UNL11       0.0618
     44 H           0.1776   -2.0924   -2.7361 H       1  UNL11       0.0618
     45 H           1.1929   -0.5356   -1.0891 H       1  UNL11       0.0625
@<TRIPOS>BOND
     1     1     2    2
     2     2     3   am
     3     2    23    1
     4     3     4    1
     5     3    29    1
     6     4     5   am
     7     4    30    1
     8     5     6    2
     9     5     7    1
    10     7     8   ar
    11     8     9   ar
    12     8    31    1
    13     9    10   ar
    14     9    32    1
    15    10    11   ar
    16    10    33    1
    17    11    12    1
    18    11    22   ar
    19    12    13    2
    20    12    14    2
    21    12    15    1
    22    15    16    1
    23    15    34    1
    24    16    17   ar
    25    17    18   ar
    26    17    35    1
    27    18    19   ar
    28    18    36    1
    29    19    20   ar
    30    19    37    1
    31    20    21   ar
    32    20    38    1
    33    21    16   ar
    34    21    39    1
    35    22     7   ar
    36    22    40    1
    37    23    24   ar
    38    24    25   ar
    39    24    41    1
    40    25    26   ar
    41    25    42    1
    42    26    27   ar
    43    26    43    1
    44    27    28   ar
    45    27    44    1
    46    28    23   ar
    47    28    45    1
@<TRIPOS>MOLECULE
*****
 45 47 0 0 0
SMALL
GASTEIGER

@<TRIPOS>ATOM
      1 O           0.4090    3.2885   -0.7824 O.2     1  UNL11      -0.2687
      2 C           0.7208    2.0506   -0.8077 C.2     1  UNL11       0.2601
      3 N           1.6701    1.6303    0.1486 N.am    1  UNL11      -0.2301
      4 N           2.1764    0.3430    0.3091 N.am    1  UNL11      -0.2301
      5 C           1.5174   -0.8451    0.0212 C.2     1  UNL11       0.2602
      6 O           2.1257   -1.9498    0.2411 O.2     1  UNL11      -0.2687
      7 C           0.1718   -0.9691   -0.5154 C.ar    1  UNL11       0.0400
      8 C          -0.2116   -2.0205   -1.3236 C.ar    1  UNL11      -0.0495
      9 C          -1.5022   -2.1668   -1.8220 C.ar    1  UNL11      -0.0592
     10 C          -2.4445   -1.1910   -1.4768 C.ar    1  UNL11      -0.0350
     11 C          -2.0899   -0.1310   -0.6719 C.ar    1  UNL11       0.1092
     12 S          -3.3361    1.0275   -0.2783 S.O2    1  UNL11       0.0724
     13 O          -3.0738    1.5929    1.0899 O.2     1  UNL11      -0.1500
     14 O          -4.6661    0.2934   -0.3065 O.2     1  UNL11      -0.1500
     15 N          -3.4145    2.3053   -1.4014 N.pl3   1  UNL11      -0.2163
     16 C          -4.6555    2.9381   -1.6526 C.ar    1  UNL11       0.0480
     17 C          -5.5244    2.5187   -2.6387 C.ar    1  UNL11      -0.0393
     18 C          -6.7201    3.0904   -2.9274 C.ar    1  UNL11      -0.0600
     19 C          -7.1287    4.1827   -2.1910 C.ar    1  UNL11      -0.0616
     20 C          -6.2977    4.6442   -1.1922 C.ar    1  UNL11      -0.0600
     21 C          -5.0893    4.0443   -0.9215 C.ar    1  UNL11      -0.0393
     22 C          -0.8058   -0.0345   -0.2084 C.ar    1  UNL11      -0.0229
     23 C           0.1117    1.1671   -1.7732 C.ar    1  UNL11       0.0382
     24 C          -0.1166   -0.1852   -1.5449 C.ar    1  UNL11      -0.0496
     25 C          -0.7119   -1.0137   -2.4867 C.ar    1  UNL11      -0.0610
     26 C          -1.0966   -0.4947   -3.6957 C.ar    1  UNL11      -0.0617
     27 C          -0.8856    0.8446   -3.9586 C.ar    1  UNL11      -0.0610
     28 C          -0.2928    1.6420   -3.0047 C.ar    1  UNL11      -0.0496
     29 H           2.0231    2.3982    0.8009 H       1  UNL11       0.1731
     30 H           3.1719    0.2808    0.6947 H       1  UNL11       0.1731
     31 H           0.5020   -2.7675   -1.5967 H       1  UNL11       0.0625
     32 H          -1.8013   -2.9906   -2.4532 H       1  UNL11       0.0618
     33 H          -3.4434   -1.3122   -1.8661 H       1  UNL11       0.0637
     34 H          -2.5789    2.6612   -1.9335 H       1  UNL11       0.1737
     35 H          -5.2214    1.6624   -3.2336 H       1  UNL11       0.0636
     36 H          -7.3521    2.7122   -3.7175 H       1  UNL11       0.0618
     37 H          -8.0846    4.6065   -2.4510 H       1  UNL11       0.0618
     38 H          -6.6444    5.5027   -0.6339 H       1  UNL11       0.0618
     39 H          -4.4716    4.4289   -0.1372 H       1  UNL11       0.0636
     40 H          -0.5499    0.7973    0.4099 H       1  UNL11       0.0645
     41 H           0.1939   -0.5811   -0.5828 H       1  UNL11       0.0625
     42 H          -0.8824   -2.0757   -2.2844 H       1  UNL11       0.0618
     43 H          -1.5663   -1.1694   -4.4214 H       1  UNL11       0.0618
     44 H          -1.1941    1.2302   -4.9112 H       1  UNL11       0.0618
     45 H          -0.1352    2.7096   -3.2209 H       1  UNL11       0.0625
@<TRIPOS>BOND
     1     1     2    2
     2     2     3   am
     3     2    23    1
     4     3     4    1
     5     3    29    1
     6     4     5   am
     7     4    30    1
     8     5     6    2
     9     5     7    1
    10     7     8   ar
    11     8     9   ar
    12     8    31    1
    13     9    10   ar
    14     9    32    1
    15    10    11   ar
    16    10    33    1
    17    11    12    1
    18    11    22   ar
    19    12    13    2
    20    12    14    2
    21    12    15    1
    22    15    16    1
    23    15    34    1
    24    16    17   ar
    25    17    18   ar
    26    17    35    1
    27    18    19   ar
    28    18    36    1
    29    19    20   ar
    30    19    37    1
    31    20    21   ar
    32    20    38    1
    33    21    16   ar
    34    21    39    1
    35    22     7   ar
    36    22    40    1
    37    23    24   ar
    38    24    25   ar
    39    24    41    1
    40    25    26   ar
    41    25    42    1
    42    26    27   ar
    43    26    43    1
    44    27    28   ar
    45    27    44    1
    46    28    23   ar
    47    28    45    1
@<TRIPOS>MOLECULE
*****
 45 47 0 0 0
SMALL
GASTEIGER

@<TRIPOS>ATOM
      1 O           0.4090    3.2885   -0.7824 O.2     1  UNL11      -0.2687
      2 C           0.7208    2.0506   -0.8077 C.2     1  UNL11       0.2601
      3 N           1.6701    1.6303    0.1486 N.am    1  UNL11      -0.2301
      4 N           2.1764    0.3430    0.3091 N.am    1  UNL11      -0.2301
      5 C           1.5174   -0.8451    0.0212 C.2     1  UNL11       0.2602
      6 O           2.1257   -1.9498    0.2411 O.2     1  UNL11      -0.2687
      7 C           0.1718   -0.9691   -0.5154 C.ar    1  UNL11       0.0400
      8 C          -0.2116   -2.0205   -1.3236 C.ar    1  UNL11      -0.0495
      9 C          -1.5022   -2.1668   -1.8220 C.ar    1  UNL11      -0.0592
     10 C          -2.4445   -1.1910   -1.4768 C.ar    1  UNL11      -0.0350
     11 C          -2.0899   -0.1310   -0.6719 C.ar    1  UNL11       0.1092
     12 S          -3.3361    1.0275   -0.2783 S.O2    1  UNL11       0.0724
     13 O          -4.6164    0.6296   -0.9588 O.2     1  UNL11      -0.1500
     14 O          -2.8684    2.3858   -0.7732 O.2     1  UNL11      -0.1500
     15 N          -3.6111    1.1426    1.3984 N.pl3   1  UNL11      -0.2163
     16 C          -4.0439    2.3715    1.9517 C.ar    1  UNL11       0.0480
     17 C          -3.1702    3.3357    2.4102 C.ar    1  UNL11      -0.0393
     18 C          -3.5283    4.5252    2.9548 C.ar    1  UNL11      -0.0600
     19 C          -4.8696    4.8245    3.0727 C.ar    1  UNL11      -0.0616
     20 C          -5.7869    3.8951    2.6298 C.ar    1  UNL11      -0.0600
     21 C          -5.3945    2.6956    2.0815 C.ar    1  UNL11      -0.0393
     22 C          -0.8058   -0.0345   -0.2084 C.ar    1  UNL11      -0.0229
     23 C           0.1117    1.1671   -1.7732 C.ar    1  UNL11       0.0382
     24 C          -0.1166   -0.1852   -1.5449 C.ar    1  UNL11      -0.0496
     25 C          -0.7119   -1.0137   -2.4867 C.ar    1  UNL11      -0.0610
     26 C          -1.0966   -0.4947   -3.6957 C.ar    1  UNL11      -0.0617
     27 C          -0.8856    0.8446   -3.9586 C.ar    1  UNL11      -0.0610
     28 C          -0.2928    1.6420   -3.0047 C.ar    1  UNL11      -0.0496
     29 H           2.0231    2.3982    0.8009 H       1  UNL11       0.1731
     30 H           3.1719    0.2808    0.6947 H       1  UNL11       0.1731
     31 H           0.5020   -2.7675   -1.5967 H       1  UNL11       0.0625
     32 H          -1.8013   -2.9906   -2.4532 H       1  UNL11       0.0618
     33 H          -3.4434   -1.3122   -1.8661 H       1  UNL11       0.0637
     34 H          -3.4751    0.3389    2.0644 H       1  UNL11       0.1737
     35 H          -2.1091    3.1198    2.3309 H       1  UNL11       0.0636
     36 H          -2.7905    5.2357    3.2977 H       1  UNL11       0.0618
     37 H          -5.1119    5.7793    3.5092 H       1  UNL11       0.0618
     38 H          -6.8303    4.1575    2.7372 H       1  UNL11       0.0618
     39 H          -6.1349    1.9996    1.7466 H       1  UNL11       0.0636
     40 H          -0.5499    0.7973    0.4099 H       1  UNL11       0.0645
     41 H           0.1939   -0.5811   -0.5828 H       1  UNL11       0.0625
     42 H          -0.8824   -2.0757   -2.2844 H       1  UNL11       0.0618
     43 H          -1.5663   -1.1694   -4.4214 H       1  UNL11       0.0618
     44 H          -1.1941    1.2302   -4.9112 H       1  UNL11       0.0618
     45 H          -0.1352    2.7096   -3.2209 H       1  UNL11       0.0625
@<TRIPOS>BOND
     1     1     2    2
     2     2     3   am
     3     2    23    1
     4     3     4    1
     5     3    29    1
     6     4     5   am
     7     4    30    1
     8     5     6    2
     9     5     7    1
    10     7     8   ar
    11     8     9   ar
    12     8    31    1
    13     9    10   ar
    14     9    32    1
    15    10    11   ar
    16    10    33    1
    17    11    12    1
    18    11    22   ar
    19    12    13    2
    20    12    14    2
    21    12    15    1
    22    15    16    1
    23    15    34    1
    24    16    17   ar
    25    17    18   ar
    26    17    35    1
    27    18    19   ar
    28    18    36    1
    29    19    20   ar
    30    19    37    1
    31    20    21   ar
    32    20    38    1
    33    21    16   ar
    34    21    39    1
    35    22     7   ar
    36    22    40    1
    37    23    24   ar
    38    24    25   ar
    39    24    41    1
    40    25    26   ar
    41    25    42    1
    42    26    27   ar
    43    26    43    1
    44    27    28   ar
    45    27    44    1
    46    28    23   ar
    47    28    45    1
@<TRIPOS>MOLECULE
*****
 45 47 0 0 0
SMALL
GASTEIGER

@<TRIPOS>ATOM
      1 O           1.7361    3.8785   -0.2363 O.2     1  UNL11      -0.2687
      2 C           2.4083    2.7966   -0.1468 C.2     1  UNL11       0.2601
      3 N           1.6701    1.6303    0.1486 N.am    1  UNL11      -0.2301
      4 N           2.1764    0.3430    0.3091 N.am    1  UNL11      -0.2301
      5 C           1.5174   -0.8451    0.0212 C.2     1  UNL11       0.2602
      6 O           2.1257   -1.9498    0.2411 O.2     1  UNL11      -0.2687
      7 C           0.1718   -0.9691   -0.5154 C.ar    1  UNL11       0.0400
      8 C          -0.2116   -2.0205   -1.3236 C.ar    1  UNL11      -0.0495
      9 C          -1.5022   -2.1668   -1.8220 C.ar    1  UNL11      -0.0592
     10 C          -2.4445   -1.1910   -1.4768 C.ar    1  UNL11      -0.0350
     11 C          -2.0899   -0.1310   -0.6719 C.ar    1  UNL11       0.1092
     12 S          -3.3361    1.0275   -0.2783 S.O2    1  UNL11       0.0724
     13 O          -3.0738    1.5929    1.0899 O.2     1  UNL11      -0.1500
     14 O          -4.6661    0.2934   -0.3065 O.2     1  UNL11      -0.1500
     15 N          -3.4145    2.3053   -1.4014 N.pl3   1  UNL11      -0.2163
     16 C          -4.6555    2.9381   -1.6526 C.ar    1  UNL11       0.0480
     17 C          -5.5244    2.5187   -2.6387 C.ar    1  UNL11      -0.0393
     18 C          -6.7201    3.0904   -2.9274 C.ar    1  UNL11      -0.0600
     19 C          -7.1287    4.1827   -2.1910 C.ar    1  UNL11      -0.0616
     20 C          -6.2977    4.6442   -1.1922 C.ar    1  UNL11      -0.0600
     21 C          -5.0893    4.0443   -0.9215 C.ar    1  UNL11      -0.0393
     22 C          -0.8058   -0.0345   -0.2084 C.ar    1  UNL11      -0.0229
     23 C           3.8379    2.8103   -0.3462 C.ar    1  UNL11       0.0382
     24 C           4.5550    1.7370   -0.8626 C.ar    1  UNL11      -0.0496
     25 C           5.9298    1.7769   -1.0528 C.ar    1  UNL11      -0.0610
     26 C           6.6243    2.9120   -0.7241 C.ar    1  UNL11      -0.0617
     27 C           5.9458    3.9986   -0.2081 C.ar    1  UNL11      -0.0610
     28 C           4.5817    3.9297   -0.0306 C.ar    1  UNL11      -0.0496
     29 H           0.6187    1.7784    0.2592 H       1  UNL11       0.1731
     30 H           3.1719    0.2808    0.6947 H       1  UNL11       0.1731
     31 H           0.5020   -2.7675   -1.5967 H       1  UNL11       0.0625
     32 H          -1.8013   -2.9906   -2.4532 H       1  UNL11       0.0618
     33 H          -3.4434   -1.3122   -1.8661 H       1  UNL11       0.0637
     34 H          -2.5789    2.6612   -1.9335 H       1  UNL11       0.1737
     35 H          -5.2214    1.6624   -3.2336 H       1  UNL11       0.0636
     36 H          -7.3521    2.7122   -3.7175 H       1  UNL11       0.0618
     37 H          -8.0846    4.6065   -2.4510 H       1  UNL11       0.0618
     38 H          -6.6444    5.5027   -0.6339 H       1  UNL11       0.0618
     39 H          -4.4716    4.4289   -0.1372 H       1  UNL11       0.0636
     40 H          -0.5499    0.7973    0.4099 H       1  UNL11       0.0645
     41 H           3.9906    0.8453   -1.1177 H       1  UNL11       0.0625
     42 H           6.4733    0.9195   -1.4618 H       1  UNL11       0.0618
     43 H           7.7089    2.9189   -0.8859 H       1  UNL11       0.0618
     44 H           6.5088    4.8770    0.0426 H       1  UNL11       0.0618
     45 H           4.0489    4.8033    0.3748 H       1  UNL11       0.0625
@<TRIPOS>BOND
     1     1     2    2
     2     2     3   am
     3     2    23    1
     4     3     4    1
     5     3    29    1
     6     4     5   am
     7     4    30    1
     8     5     6    2
     9     5     7    1
    10     7     8   ar
    11     8     9   ar
    12     8    31    1
    13     9    10   ar
    14     9    32    1
    15    10    11   ar
    16    10    33    1
    17    11    12    1
    18    11    22   ar
    19    12    13    2
    20    12    14    2
    21    12    15    1
    22    15    16    1
    23    15    34    1
    24    16    17   ar
    25    17    18   ar
    26    17    35    1
    27    18    19   ar
    28    18    36    1
    29    19    20   ar
    30    19    37    1
    31    20    21   ar
    32    20    38    1
    33    21    16   ar
    34    21    39    1
    35    22     7   ar
    36    22    40    1
    37    23    24   ar
    38    24    25   ar
    39    24    41    1
    40    25    26   ar
    41    25    42    1
    42    26    27   ar
    43    26    43    1
    44    27    28   ar
    45    27    44    1
    46    28    23   ar
    47    28    45    1
@<TRIPOS>MOLECULE
*****
 45 47 0 0 0
SMALL
GASTEIGER

@<TRIPOS>ATOM
      1 O           0.9469   -2.1642   -2.4407 O.2     1  UNL11      -0.2687
      2 C           1.7213   -3.1198   -2.0979 C.2     1  UNL11       0.2601
      3 N           2.5305   -2.8866   -0.9651 N.am    1  UNL11      -0.2301
      4 N           2.5673   -1.7287   -0.1924 N.am    1  UNL11      -0.2301
      5 C           1.5174   -0.8451    0.0212 C.2     1  UNL11       0.2602
      6 O           1.7251    0.1850    0.7524 O.2     1  UNL11      -0.2687
      7 C           0.1718   -0.9691   -0.5154 C.ar    1  UNL11       0.0400
      8 C          -0.2116   -2.0205   -1.3236 C.ar    1  UNL11      -0.0495
      9 C          -1.5022   -2.1668   -1.8220 C.ar    1  UNL11      -0.0592
     10 C          -2.4445   -1.1910   -1.4768 C.ar    1  UNL11      -0.0350
     11 C          -2.0899   -0.1310   -0.6719 C.ar    1  UNL11       0.1092
     12 S          -3.3361    1.0275   -0.2783 S.O2    1  UNL11       0.0724
     13 O          -3.8521    1.6510   -1.5454 O.2     1  UNL11      -0.1500
     14 O          -2.7110    2.0820    0.6194 O.2     1  UNL11      -0.1500
     15 N          -4.6376    0.3220    0.5634 N.pl3   1  UNL11      -0.2163
     16 C          -4.6090   -1.0618    0.8594 C.ar    1  UNL11       0.0480
     17 C          -5.1282   -2.0200    0.0134 C.ar    1  UNL11      -0.0393
     18 C          -5.1343   -3.3557    0.2489 C.ar    1  UNL11      -0.0600
     19 C          -4.5825   -3.8256    1.4224 C.ar    1  UNL11      -0.0616
     20 C          -4.0490   -2.9102    2.3049 C.ar    1  UNL11      -0.0600
     21 C          -4.0569   -1.5600    2.0398 C.ar    1  UNL11      -0.0393
     22 C          -0.8058   -0.0345   -0.2084 C.ar    1  UNL11      -0.0229
     23 C           1.7343   -4.3509   -2.8515 C.ar    1  UNL11       0.0382
     24 C           1.4514   -4.4263   -4.2106 C.ar    1  UNL11      -0.0496
     25 C           1.4782   -5.6220   -4.9160 C.ar    1  UNL11      -0.0610
     26 C           1.7944   -6.7846   -4.2625 C.ar    1  UNL11      -0.0617
     27 C           2.0811   -6.7490   -2.9119 C.ar    1  UNL11      -0.0610
     28 C           2.0466   -5.5478   -2.2386 C.ar    1  UNL11      -0.0496
     29 H           3.1675   -3.6984   -0.6916 H       1  UNL11       0.1731
     30 H           3.5047   -1.5122    0.2744 H       1  UNL11       0.1731
     31 H           0.5020   -2.7675   -1.5967 H       1  UNL11       0.0625
     32 H          -1.8013   -2.9906   -2.4532 H       1  UNL11       0.0618
     33 H          -3.4434   -1.3122   -1.8661 H       1  UNL11       0.0637
     34 H          -5.4820    0.8629    0.8835 H       1  UNL11       0.1737
     35 H          -5.5713   -1.6724   -0.9149 H       1  UNL11       0.0636
     36 H          -5.5616   -4.0528   -0.4570 H       1  UNL11       0.0618
     37 H          -4.6062   -4.8925    1.5707 H       1  UNL11       0.0618
     38 H          -3.6255   -3.3086    3.2165 H       1  UNL11       0.0618
     39 H          -3.6318   -0.8794    2.7474 H       1  UNL11       0.0636
     40 H          -0.5499    0.7973    0.4099 H       1  UNL11       0.0645
     41 H           1.2025   -3.4970   -4.7137 H       1  UNL11       0.0625
     42 H           1.2525   -5.6570   -5.9863 H       1  UNL11       0.0618
     43 H           1.8108   -7.7152   -4.8425 H       1  UNL11       0.0618
     44 H           2.3260   -7.6705   -2.4199 H       1  UNL11       0.0618
     45 H           2.2834   -5.5286   -1.1640 H       1  UNL11       0.0625
@<TRIPOS>BOND
     1     1     2    2
     2     2     3   am
     3     2    23    1
     4     3     4    1
     5     3    29    1
     6     4     5   am
     7     4    30    1
     8     5     6    2
     9     5     7    1
    10     7     8   ar
    11     8     9   ar
    12     8    31    1
    13     9    10   ar
    14     9    32    1
    15    10    11   ar
    16    10    33    1
    17    11    12    1
    18    11    22   ar
    19    12    13    2
    20    12    14    2
    21    12    15    1
    22    15    16    1
    23    15    34    1
    24    16    17   ar
    25    17    18   ar
    26    17    35    1
    27    18    19   ar
    28    18    36    1
    29    19    20   ar
    30    19    37    1
    31    20    21   ar
    32    20    38    1
    33    21    16   ar
    34    21    39    1
    35    22     7   ar
    36    22    40    1
    37    23    24   ar
    38    24    25   ar
    39    24    41    1
    40    25    26   ar
    41    25    42    1
    42    26    27   ar
    43    26    43    1
    44    27    28   ar
    45    27    44    1
    46    28    23   ar
    47    28    45    1
@<TRIPOS>MOLECULE
*****
 45 47 0 0 0
SMALL
GASTEIGER

@<TRIPOS>ATOM
      1 O           0.9469   -2.1642   -2.4407 O.2     1  UNL11      -0.2687
      2 C           1.7213   -3.1198   -2.0979 C.2     1  UNL11       0.2601
      3 N           2.5305   -2.8866   -0.9651 N.am    1  UNL11      -0.2301
      4 N           2.5673   -1.7287   -0.1924 N.am    1  UNL11      -0.2301
      5 C           1.5174   -0.8451    0.0212 C.2     1  UNL11       0.2602
      6 O           1.7251    0.1850    0.7524 O.2     1  UNL11      -0.2687
      7 C           0.1718   -0.9691   -0.5154 C.ar    1  UNL11       0.0400
      8 C          -0.2116   -2.0205   -1.3236 C.ar    1  UNL11      -0.0495
      9 C          -1.5022   -2.1668   -1.8220 C.ar    1  UNL11      -0.0592
     10 C          -2.4445   -1.1910   -1.4768 C.ar    1  UNL11      -0.0350
     11 C          -2.0899   -0.1310   -0.6719 C.ar    1  UNL11       0.1092
     12 S          -3.3361    1.0275   -0.2783 S.O2    1  UNL11       0.0724
     13 O          -3.8521    1.6510   -1.5454 O.2     1  UNL11      -0.1500
     14 O          -2.7110    2.0820    0.6194 O.2     1  UNL11      -0.1500
     15 N          -4.6376    0.3220    0.5634 N.pl3   1  UNL11      -0.2163
     16 C          -5.3666   -0.7328   -0.0363 C.ar    1  UNL11       0.0480
     17 C          -5.0327   -2.0614    0.1263 C.ar    1  UNL11      -0.0393
     18 C          -5.6896   -3.1102   -0.4289 C.ar    1  UNL11      -0.0600
     19 C          -6.7866   -2.8595   -1.2266 C.ar    1  UNL11      -0.0616
     20 C          -7.1643   -1.5480   -1.4230 C.ar    1  UNL11      -0.0600
     21 C          -6.4785   -0.5033   -0.8470 C.ar    1  UNL11      -0.0393
     22 C          -0.8058   -0.0345   -0.2084 C.ar    1  UNL11      -0.0229
     23 C           1.7343   -4.3509   -2.8515 C.ar    1  UNL11       0.0382
     24 C           2.0174   -5.5930   -2.2948 C.ar    1  UNL11      -0.0496
     25 C           2.0159   -6.7652   -3.0391 C.ar    1  UNL11      -0.0610
     26 C           1.7259   -6.7148   -4.3778 C.ar    1  UNL11      -0.0617
     27 C           1.4399   -5.4983   -4.9661 C.ar    1  UNL11      -0.0610
     28 C           1.4489   -4.3522   -4.2022 C.ar    1  UNL11      -0.0496
     29 H           3.1675   -3.6984   -0.6916 H       1  UNL11       0.1731
     30 H           3.5047   -1.5122    0.2744 H       1  UNL11       0.1731
     31 H           0.5020   -2.7675   -1.5967 H       1  UNL11       0.0625
     32 H          -1.8013   -2.9906   -2.4532 H       1  UNL11       0.0618
     33 H          -3.4434   -1.3122   -1.8661 H       1  UNL11       0.0637
     34 H          -4.9417    0.6292    1.5232 H       1  UNL11       0.1737
     35 H          -4.1698   -2.2822    0.7473 H       1  UNL11       0.0636
     36 H          -5.3719   -4.1291   -0.2627 H       1  UNL11       0.0618
     37 H          -7.2808   -3.7194   -1.6474 H       1  UNL11       0.0618
     38 H          -8.0266   -1.3833   -2.0542 H       1  UNL11       0.0618
     39 H          -6.8022    0.5016   -1.0202 H       1  UNL11       0.0636
     40 H          -0.5499    0.7973    0.4099 H       1  UNL11       0.0645
     41 H           2.2453   -5.6163   -1.2336 H       1  UNL11       0.0625
     42 H           2.2412   -7.7323   -2.5789 H       1  UNL11       0.0618
     43 H           1.7292   -7.6546   -4.9428 H       1  UNL11       0.0618
     44 H           1.2158   -5.4814   -6.0152 H       1  UNL11       0.0618
     45 H           1.2129   -3.3885   -4.6786 H       1  UNL11       0.0625
@<TRIPOS>BOND
     1     1     2    2
     2     2     3   am
     3     2    23    1
     4     3     4    1
     5     3    29    1
     6     4     5   am
     7     4    30    1
     8     5     6    2
     9     5     7    1
    10     7     8   ar
    11     8     9   ar
    12     8    31    1
    13     9    10   ar
    14     9    32    1
    15    10    11   ar
    16    10    33    1
    17    11    12    1
    18    11    22   ar
    19    12    13    2
    20    12    14    2
    21    12    15    1
    22    15    16    1
    23    15    34    1
    24    16    17   ar
    25    17    18   ar
    26    17    35    1
    27    18    19   ar
    28    18    36    1
    29    19    20   ar
    30    19    37    1
    31    20    21   ar
    32    20    38    1
    33    21    16   ar
    34    21    39    1
    35    22     7   ar
    36    22    40    1
    37    23    24   ar
    38    24    25   ar
    39    24    41    1
    40    25    26   ar
    41    25    42    1
    42    26    27   ar
    43    26    43    1
    44    27    28   ar
    45    27    44    1
    46    28    23   ar
    47    28    45    1
@<TRIPOS>MOLECULE
*****
 45 47 0 0 0
SMALL
GASTEIGER

@<TRIPOS>ATOM
      1 O           1.7361    3.8785   -0.2363 O.2     1  UNL11      -0.2687
      2 C           2.4083    2.7966   -0.1468 C.2     1  UNL11       0.2601
      3 N           1.6701    1.6303    0.1486 N.am    1  UNL11      -0.2301
      4 N           2.1764    0.3430    0.3091 N.am    1  UNL11      -0.2301
      5 C           1.5174   -0.8451    0.0212 C.2     1  UNL11       0.2602
      6 O           2.1257   -1.9498    0.2411 O.2     1  UNL11      -0.2687
      7 C           0.1718   -0.9691   -0.5154 C.ar    1  UNL11       0.0400
      8 C          -0.2116   -2.0205   -1.3236 C.ar    1  UNL11      -0.0495
      9 C          -1.5022   -2.1668   -1.8220 C.ar    1  UNL11      -0.0592
     10 C          -2.4445   -1.1910   -1.4768 C.ar    1  UNL11      -0.0350
     11 C          -2.0899   -0.1310   -0.6719 C.ar    1  UNL11       0.1092
     12 S          -3.3361    1.0275   -0.2783 S.O2    1  UNL11       0.0724
     13 O          -4.6164    0.6296   -0.9588 O.2     1  UNL11      -0.1500
     14 O          -2.8684    2.3858   -0.7732 O.2     1  UNL11      -0.1500
     15 N          -3.6111    1.1426    1.3984 N.pl3   1  UNL11      -0.2163
     16 C          -2.8551    0.3402    2.2861 C.ar    1  UNL11       0.0480
     17 C          -1.6588    0.7532    2.8354 C.ar    1  UNL11      -0.0393
     18 C          -0.8909    0.0250    3.6838 C.ar    1  UNL11      -0.0600
     19 C          -1.3151   -1.2363    4.0465 C.ar    1  UNL11      -0.0616
     20 C          -2.5050   -1.6994    3.5260 C.ar    1  UNL11      -0.0600
     21 C          -3.2637   -0.9383    2.6665 C.ar    1  UNL11      -0.0393
     22 C          -0.8058   -0.0345   -0.2084 C.ar    1  UNL11      -0.0229
     23 C           3.8379    2.8103   -0.3462 C.ar    1  UNL11       0.0382
     24 C           4.5550    1.7370   -0.8626 C.ar    1  UNL11      -0.0496
     25 C           5.9298    1.7769   -1.0528 C.ar    1  UNL11      -0.0610
     26 C           6.6243    2.9120   -0.7241 C.ar    1  UNL11      -0.0617
     27 C           5.9458    3.9986   -0.2081 C.ar    1  UNL11      -0.0610
     28 C           4.5817    3.9297   -0.0306 C.ar    1  UNL11      -0.0496
     29 H           0.6187    1.7784    0.2592 H       1  UNL11       0.1731
     30 H           3.1719    0.2808    0.6947 H       1  UNL11       0.1731
     31 H           0.5020   -2.7675   -1.5967 H       1  UNL11       0.0625
     32 H          -1.8013   -2.9906   -2.4532 H       1  UNL11       0.0618
     33 H          -3.4434   -1.3122   -1.8661 H       1  UNL11       0.0637
     34 H          -4.3254    1.7871    1.8256 H       1  UNL11       0.1737
     35 H          -1.3035    1.7417    2.5606 H       1  UNL11       0.0636
     36 H           0.0396    0.4087    4.0756 H       1  UNL11       0.0618
     37 H          -0.6774   -1.7813    4.7227 H       1  UNL11       0.0618
     38 H          -2.8100   -2.6920    3.8272 H       1  UNL11       0.0618
     39 H          -4.1830   -1.3300    2.2841 H       1  UNL11       0.0636
     40 H          -0.5499    0.7973    0.4099 H       1  UNL11       0.0645
     41 H           3.9906    0.8453   -1.1177 H       1  UNL11       0.0625
     42 H           6.4733    0.9195   -1.4618 H       1  UNL11       0.0618
     43 H           7.7089    2.9189   -0.8859 H       1  UNL11       0.0618
     44 H           6.5088    4.8770    0.0426 H       1  UNL11       0.0618
     45 H           4.0489    4.8033    0.3748 H       1  UNL11       0.0625
@<TRIPOS>BOND
     1     1     2    2
     2     2     3   am
     3     2    23    1
     4     3     4    1
     5     3    29    1
     6     4     5   am
     7     4    30    1
     8     5     6    2
     9     5     7    1
    10     7     8   ar
    11     8     9   ar
    12     8    31    1
    13     9    10   ar
    14     9    32    1
    15    10    11   ar
    16    10    33    1
    17    11    12    1
    18    11    22   ar
    19    12    13    2
    20    12    14    2
    21    12    15    1
    22    15    16    1
    23    15    34    1
    24    16    17   ar
    25    17    18   ar
    26    17    35    1
    27    18    19   ar
    28    18    36    1
    29    19    20   ar
    30    19    37    1
    31    20    21   ar
    32    20    38    1
    33    21    16   ar
    34    21    39    1
    35    22     7   ar
    36    22    40    1
    37    23    24   ar
    38    24    25   ar
    39    24    41    1
    40    25    26   ar
    41    25    42    1
    42    26    27   ar
    43    26    43    1
    44    27    28   ar
    45    27    44    1
    46    28    23   ar
    47    28    45    1
@<TRIPOS>MOLECULE
*****
 45 47 0 0 0
SMALL
GASTEIGER

@<TRIPOS>ATOM
      1 O           1.8420   -4.2661   -2.6474 O.2     1  UNL11      -0.2687
      2 C           1.7213   -3.1198   -2.0979 C.2     1  UNL11       0.2601
      3 N           2.5305   -2.8866   -0.9651 N.am    1  UNL11      -0.2301
      4 N           2.5673   -1.7287   -0.1924 N.am    1  UNL11      -0.2301
      5 C           1.5174   -0.8451    0.0212 C.2     1  UNL11       0.2602
      6 O           1.7251    0.1850    0.7524 O.2     1  UNL11      -0.2687
      7 C           0.1718   -0.9691   -0.5154 C.ar    1  UNL11       0.0400
      8 C          -0.2116   -2.0205   -1.3236 C.ar    1  UNL11      -0.0495
      9 C          -1.5022   -2.1668   -1.8220 C.ar    1  UNL11      -0.0592
     10 C          -2.4445   -1.1910   -1.4768 C.ar    1  UNL11      -0.0350
     11 C          -2.0899   -0.1310   -0.6719 C.ar    1  UNL11       0.1092
     12 S          -3.3361    1.0275   -0.2783 S.O2    1  UNL11       0.0724
     13 O          -3.8521    1.6510   -1.5454 O.2     1  UNL11      -0.1500
     14 O          -2.7110    2.0820    0.6194 O.2     1  UNL11      -0.1500
     15 N          -4.6376    0.3220    0.5634 N.pl3   1  UNL11      -0.2163
     16 C          -4.4049   -0.7996    1.3949 C.ar    1  UNL11       0.0480
     17 C          -4.0912   -0.6876    2.7337 C.ar    1  UNL11      -0.0393
     18 C          -3.8518   -1.7251    3.5739 C.ar    1  UNL11      -0.0600
     19 C          -3.9209   -3.0104    3.0783 C.ar    1  UNL11      -0.0616
     20 C          -4.2308   -3.1800    1.7455 C.ar    1  UNL11      -0.0600
     21 C          -4.4687   -2.1083    0.9158 C.ar    1  UNL11      -0.0393
     22 C          -0.8058   -0.0345   -0.2084 C.ar    1  UNL11      -0.0229
     23 C           0.8008   -2.1480   -2.6382 C.ar    1  UNL11       0.0382
     24 C           0.9941   -0.7737   -2.5561 C.ar    1  UNL11      -0.0496
     25 C           0.0978    0.1421   -3.0909 C.ar    1  UNL11      -0.0610
     26 C          -1.0283   -0.3090   -3.7291 C.ar    1  UNL11      -0.0617
     27 C          -1.2543   -1.6677   -3.8300 C.ar    1  UNL11      -0.0610
     28 C          -0.3472   -2.5523   -3.2897 C.ar    1  UNL11      -0.0496
     29 H           3.1675   -3.6984   -0.6916 H       1  UNL11       0.1731
     30 H           3.5047   -1.5122    0.2744 H       1  UNL11       0.1731
     31 H           0.5020   -2.7675   -1.5967 H       1  UNL11       0.0625
     32 H          -1.8013   -2.9906   -2.4532 H       1  UNL11       0.0618
     33 H          -3.4434   -1.3122   -1.8661 H       1  UNL11       0.0637
     34 H          -5.6273    0.6753    0.5016 H       1  UNL11       0.1737
     35 H          -4.0275    0.3154    3.1446 H       1  UNL11       0.0636
     36 H          -3.6074   -1.5662    4.6140 H       1  UNL11       0.0618
     37 H          -3.7254   -3.8059    3.7781 H       1  UNL11       0.0618
     38 H          -4.2758   -4.1987    1.3861 H       1  UNL11       0.0618
     39 H          -4.7086   -2.2785   -0.1129 H       1  UNL11       0.0636
     40 H          -0.5499    0.7973    0.4099 H       1  UNL11       0.0645
     41 H           1.8905   -0.4323   -2.0474 H       1  UNL11       0.0625
     42 H           0.2714    1.2199   -3.0149 H       1  UNL11       0.0618
     43 H          -1.7192    0.4343   -4.1447 H       1  UNL11       0.0618
     44 H          -2.1420   -1.9992   -4.3334 H       1  UNL11       0.0618
     45 H          -0.5326   -3.6333   -3.3812 H       1  UNL11       0.0625
@<TRIPOS>BOND
     1     1     2    2
     2     2     3   am
     3     2    23    1
     4     3     4    1
     5     3    29    1
     6     4     5   am
     7     4    30    1
     8     5     6    2
     9     5     7    1
    10     7     8   ar
    11     8     9   ar
    12     8    31    1
    13     9    10   ar
    14     9    32    1
    15    10    11   ar
    16    10    33    1
    17    11    12    1
    18    11    22   ar
    19    12    13    2
    20    12    14    2
    21    12    15    1
    22    15    16    1
    23    15    34    1
    24    16    17   ar
    25    17    18   ar
    26    17    35    1
    27    18    19   ar
    28    18    36    1
    29    19    20   ar
    30    19    37    1
    31    20    21   ar
    32    20    38    1
    33    21    16   ar
    34    21    39    1
    35    22     7   ar
    36    22    40    1
    37    23    24   ar
    38    24    25   ar
    39    24    41    1
    40    25    26   ar
    41    25    42    1
    42    26    27   ar
    43    26    43    1
    44    27    28   ar
    45    27    44    1
    46    28    23   ar
    47    28    45    1
@<TRIPOS>MOLECULE
*****
 45 47 0 0 0
SMALL
GASTEIGER

@<TRIPOS>ATOM
      1 O           5.4166   -0.3786    1.8274 O.2     1  UNL11      -0.2687
      2 C           4.3478   -0.5861    1.1603 C.2     1  UNL11       0.2601
      3 N           3.1499   -0.1275    1.7495 N.am    1  UNL11      -0.2301
      4 N           1.8652   -0.2484    1.2260 N.am    1  UNL11      -0.2301
      5 C           1.5174   -0.8451    0.0212 C.2     1  UNL11       0.2602
      6 O           2.4469   -1.3434   -0.7045 O.2     1  UNL11      -0.2687
      7 C           0.1718   -0.9691   -0.5154 C.ar    1  UNL11       0.0400
      8 C          -0.2116   -2.0205   -1.3236 C.ar    1  UNL11      -0.0495
      9 C          -1.5022   -2.1668   -1.8220 C.ar    1  UNL11      -0.0592
     10 C          -2.4445   -1.1910   -1.4768 C.ar    1  UNL11      -0.0350
     11 C          -2.0899   -0.1310   -0.6719 C.ar    1  UNL11       0.1092
     12 S          -3.3361    1.0275   -0.2783 S.O2    1  UNL11       0.0724
     13 O          -4.6164    0.6296   -0.9588 O.2     1  UNL11      -0.1500
     14 O          -2.8684    2.3858   -0.7732 O.2     1  UNL11      -0.1500
     15 N          -3.6111    1.1426    1.3984 N.pl3   1  UNL11      -0.2163
     16 C          -3.3893    0.0123    2.2210 C.ar    1  UNL11       0.0480
     17 C          -4.3728   -0.9127    2.5046 C.ar    1  UNL11      -0.0393
     18 C          -4.2185   -2.0076    3.2901 C.ar    1  UNL11      -0.0600
     19 C          -2.9878   -2.2432    3.8665 C.ar    1  UNL11      -0.0616
     20 C          -1.9683   -1.3493    3.6161 C.ar    1  UNL11      -0.0600
     21 C          -2.1536   -0.2460    2.8150 C.ar    1  UNL11      -0.0393
     22 C          -0.8058   -0.0345   -0.2084 C.ar    1  UNL11      -0.0229
     23 C           4.4071   -1.2520   -0.1190 C.ar    1  UNL11       0.0382
     24 C           5.3726   -2.1947   -0.4538 C.ar    1  UNL11      -0.0496
     25 C           5.4042   -2.8283   -1.6889 C.ar    1  UNL11      -0.0610
     26 C           4.4533   -2.5245   -2.6282 C.ar    1  UNL11      -0.0617
     27 C           3.4782   -1.5924   -2.3317 C.ar    1  UNL11      -0.0610
     28 C           3.4722   -0.9804   -1.0977 C.ar    1  UNL11      -0.0496
     29 H           3.2683    0.3544    2.6948 H       1  UNL11       0.1731
     30 H           1.0803    0.1659    1.8227 H       1  UNL11       0.1731
     31 H           0.5020   -2.7675   -1.5967 H       1  UNL11       0.0625
     32 H          -1.8013   -2.9906   -2.4532 H       1  UNL11       0.0618
     33 H          -3.4434   -1.3122   -1.8661 H       1  UNL11       0.0637
     34 H          -3.9445    2.0216    1.8719 H       1  UNL11       0.1737
     35 H          -5.3512   -0.7451    2.0645 H       1  UNL11       0.0636
     36 H          -5.0341   -2.6916    3.4740 H       1  UNL11       0.0618
     37 H          -2.9066   -3.1237    4.4821 H       1  UNL11       0.0618
     38 H          -1.0161   -1.5597    4.0833 H       1  UNL11       0.0618
     39 H          -1.3384    0.4249    2.6414 H       1  UNL11       0.0636
     40 H          -0.5499    0.7973    0.4099 H       1  UNL11       0.0645
     41 H           6.1188   -2.4242    0.3007 H       1  UNL11       0.0625
     42 H           6.1738   -3.5681   -1.9300 H       1  UNL11       0.0618
     43 H           4.4990   -3.0402   -3.5950 H       1  UNL11       0.0618
     44 H           2.7436   -1.3694   -3.0813 H       1  UNL11       0.0618
     45 H           2.6870   -0.2440   -0.8683 H       1  UNL11       0.0625
@<TRIPOS>BOND
     1     1     2    2
     2     2     3   am
     3     2    23    1
     4     3     4    1
     5     3    29    1
     6     4     5   am
     7     4    30    1
     8     5     6    2
     9     5     7    1
    10     7     8   ar
    11     8     9   ar
    12     8    31    1
    13     9    10   ar
    14     9    32    1
    15    10    11   ar
    16    10    33    1
    17    11    12    1
    18    11    22   ar
    19    12    13    2
    20    12    14    2
    21    12    15    1
    22    15    16    1
    23    15    34    1
    24    16    17   ar
    25    17    18   ar
    26    17    35    1
    27    18    19   ar
    28    18    36    1
    29    19    20   ar
    30    19    37    1
    31    20    21   ar
    32    20    38    1
    33    21    16   ar
    34    21    39    1
    35    22     7   ar
    36    22    40    1
    37    23    24   ar
    38    24    25   ar
    39    24    41    1
    40    25    26   ar
    41    25    42    1
    42    26    27   ar
    43    26    43    1
    44    27    28   ar
    45    27    44    1
    46    28    23   ar
    47    28    45    1
@<TRIPOS>MOLECULE
*****
 45 47 0 0 0
SMALL
GASTEIGER

@<TRIPOS>ATOM
      1 O           6.0336   -2.2123    0.6685 O.2     1  UNL11      -0.2687
      2 C           4.9338   -2.5045    0.0894 C.2     1  UNL11       0.2601
      3 N           3.8594   -1.6171    0.3145 N.am    1  UNL11      -0.2301
      4 N           2.5673   -1.7287   -0.1924 N.am    1  UNL11      -0.2301
      5 C           1.5174   -0.8451    0.0212 C.2     1  UNL11       0.2602
      6 O           1.7251    0.1850    0.7524 O.2     1  UNL11      -0.2687
      7 C           0.1718   -0.9691   -0.5154 C.ar    1  UNL11       0.0400
      8 C          -0.2116   -2.0205   -1.3236 C.ar    1  UNL11      -0.0495
      9 C          -1.5022   -2.1668   -1.8220 C.ar    1  UNL11      -0.0592
     10 C          -2.4445   -1.1910   -1.4768 C.ar    1  UNL11      -0.0350
     11 C          -2.0899   -0.1310   -0.6719 C.ar    1  UNL11       0.1092
     12 S          -3.3361    1.0275   -0.2783 S.O2    1  UNL11       0.0724
     13 O          -2.9138    2.3907   -0.7517 O.2     1  UNL11      -0.1500
     14 O          -3.5084    1.0163    1.2313 O.2     1  UNL11      -0.1500
     15 N          -4.8356    0.6347   -0.9836 N.pl3   1  UNL11      -0.2163
     16 C          -4.9380    0.5284   -2.3914 C.ar    1  UNL11       0.0480
     17 C          -4.7351   -0.6554   -3.0701 C.ar    1  UNL11      -0.0393
     18 C          -4.8131   -0.8131   -4.4150 C.ar    1  UNL11      -0.0600
     19 C          -5.1195    0.2822   -5.1953 C.ar    1  UNL11      -0.0616
     20 C          -5.3321    1.4914   -4.5678 C.ar    1  UNL11      -0.0600
     21 C          -5.2460    1.6222   -3.2007 C.ar    1  UNL11      -0.0393
     22 C          -0.8058   -0.0345   -0.2084 C.ar    1  UNL11      -0.0229
     23 C           4.8394   -3.6819   -0.7403 C.ar    1  UNL11       0.0382
     24 C           5.8983   -4.5546   -0.9641 C.ar    1  UNL11      -0.0496
     25 C           5.7808   -5.6860   -1.7605 C.ar    1  UNL11      -0.0610
     26 C           4.5802   -5.9696   -2.3580 C.ar    1  UNL11      -0.0617
     27 C           3.5056   -5.1252   -2.1589 C.ar    1  UNL11      -0.0610
     28 C           3.6521   -4.0103   -1.3635 C.ar    1  UNL11      -0.0496
     29 H           4.0862   -0.7856    0.9445 H       1  UNL11       0.1731
     30 H           2.3812   -2.5865   -0.8034 H       1  UNL11       0.1731
     31 H           0.5020   -2.7675   -1.5967 H       1  UNL11       0.0625
     32 H          -1.8013   -2.9906   -2.4532 H       1  UNL11       0.0618
     33 H          -3.4434   -1.3122   -1.8661 H       1  UNL11       0.0637
     34 H          -5.7114    0.4633   -0.4254 H       1  UNL11       0.1737
     35 H          -4.4888   -1.5303   -2.4761 H       1  UNL11       0.0636
     36 H          -4.6389   -1.7707   -4.8835 H       1  UNL11       0.0618
     37 H          -5.1730    0.1145   -6.2583 H       1  UNL11       0.0618
     38 H          -5.5686    2.3315   -5.2060 H       1  UNL11       0.0618
     39 H          -5.4195    2.5762   -2.7485 H       1  UNL11       0.0636
     40 H          -0.5499    0.7973    0.4099 H       1  UNL11       0.0645
     41 H           6.8424   -4.3161   -0.4843 H       1  UNL11       0.0625
     42 H           6.6283   -6.3593   -1.9219 H       1  UNL11       0.0618
     43 H           4.5129   -6.8700   -2.9803 H       1  UNL11       0.0618
     44 H           2.5751   -5.3657   -2.6360 H       1  UNL11       0.0618
     45 H           2.7881   -3.3472   -1.2053 H       1  UNL11       0.0625
@<TRIPOS>BOND
     1     1     2    2
     2     2     3   am
     3     2    23    1
     4     3     4    1
     5     3    29    1
     6     4     5   am
     7     4    30    1
     8     5     6    2
     9     5     7    1
    10     7     8   ar
    11     8     9   ar
    12     8    31    1
    13     9    10   ar
    14     9    32    1
    15    10    11   ar
    16    10    33    1
    17    11    12    1
    18    11    22   ar
    19    12    13    2
    20    12    14    2
    21    12    15    1
    22    15    16    1
    23    15    34    1
    24    16    17   ar
    25    17    18   ar
    26    17    35    1
    27    18    19   ar
    28    18    36    1
    29    19    20   ar
    30    19    37    1
    31    20    21   ar
    32    20    38    1
    33    21    16   ar
    34    21    39    1
    35    22     7   ar
    36    22    40    1
    37    23    24   ar
    38    24    25   ar
    39    24    41    1
    40    25    26   ar
    41    25    42    1
    42    26    27   ar
    43    26    43    1
    44    27    28   ar
    45    27    44    1
    46    28    23   ar
    47    28    45    1
@<TRIPOS>MOLECULE
*****
 45 47 0 0 0
SMALL
GASTEIGER

@<TRIPOS>ATOM
      1 O          -0.6268    2.3772    2.0084 O.2     1  UNL11      -0.2687
      2 C          -0.1520    1.2701    1.5851 C.2     1  UNL11       0.2601
      3 N           1.2355    1.2485    1.3267 N.am    1  UNL11      -0.2301
      4 N           1.9768    0.1707    0.8493 N.am    1  UNL11      -0.2301
      5 C           1.5174   -0.8451    0.0212 C.2     1  UNL11       0.2602
      6 O           2.3315   -1.7739   -0.3156 O.2     1  UNL11      -0.2687
      7 C           0.1718   -0.9691   -0.5154 C.ar    1  UNL11       0.0400
      8 C          -0.2116   -2.0205   -1.3236 C.ar    1  UNL11      -0.0495
      9 C          -1.5022   -2.1668   -1.8220 C.ar    1  UNL11      -0.0592
     10 C          -2.4445   -1.1910   -1.4768 C.ar    1  UNL11      -0.0350
     11 C          -2.0899   -0.1310   -0.6719 C.ar    1  UNL11       0.1092
     12 S          -3.3361    1.0275   -0.2783 S.O2    1  UNL11       0.0724
     13 O          -2.7596    2.0933    0.6119 O.2     1  UNL11      -0.1500
     14 O          -4.4463    0.2770    0.4377 O.2     1  UNL11      -0.1500
     15 N          -4.0028    1.7614   -1.6629 N.pl3   1  UNL11      -0.2163
     16 C          -3.9172    3.1657   -1.8179 C.ar    1  UNL11       0.0480
     17 C          -2.8642    3.7861   -2.4579 C.ar    1  UNL11      -0.0393
     18 C          -2.7274    5.1247   -2.6286 C.ar    1  UNL11      -0.0600
     19 C          -3.7061    5.9607   -2.1329 C.ar    1  UNL11      -0.0616
     20 C          -4.7818    5.3929   -1.4835 C.ar    1  UNL11      -0.0600
     21 C          -4.8943    4.0307   -1.3245 C.ar    1  UNL11      -0.0393
     22 C          -0.8058   -0.0345   -0.2084 C.ar    1  UNL11      -0.0229
     23 C          -1.0190    0.1311    1.3985 C.ar    1  UNL11       0.0382
     24 C          -2.1679   -0.0946    2.1481 C.ar    1  UNL11      -0.0496
     25 C          -2.9910   -1.1942    1.9445 C.ar    1  UNL11      -0.0610
     26 C          -2.6736   -2.1040    0.9697 C.ar    1  UNL11      -0.0617
     27 C          -1.5394   -1.9132    0.2050 C.ar    1  UNL11      -0.0610
     28 C          -0.7421   -0.8128    0.4299 C.ar    1  UNL11      -0.0496
     29 H           1.7445    2.1665    1.5216 H       1  UNL11       0.1731
     30 H           2.9988    0.1357    1.1622 H       1  UNL11       0.1731
     31 H           0.5020   -2.7675   -1.5967 H       1  UNL11       0.0625
     32 H          -1.8013   -2.9906   -2.4532 H       1  UNL11       0.0618
     33 H          -3.4434   -1.3122   -1.8661 H       1  UNL11       0.0637
     34 H          -4.4866    1.2237   -2.4277 H       1  UNL11       0.1737
     35 H          -2.0799    3.1476   -2.8529 H       1  UNL11       0.0636
     36 H          -1.8732    5.5459   -3.1383 H       1  UNL11       0.0618
     37 H          -3.5605    7.0166   -2.2903 H       1  UNL11       0.0618
     38 H          -5.5313    6.0738   -1.1046 H       1  UNL11       0.0618
     39 H          -5.7445    3.6257   -0.8168 H       1  UNL11       0.0636
     40 H          -0.5499    0.7973    0.4099 H       1  UNL11       0.0645
     41 H          -2.4055    0.6348    2.9163 H       1  UNL11       0.0625
     42 H          -3.8914   -1.3508    2.5466 H       1  UNL11       0.0618
     43 H          -3.3409   -2.9625    0.8274 H       1  UNL11       0.0618
     44 H          -1.3095   -2.6375   -0.5525 H       1  UNL11       0.0618
     45 H           0.1558   -0.6657   -0.1893 H       1  UNL11       0.0625
@<TRIPOS>BOND
     1     1     2    2
     2     2     3   am
     3     2    23    1
     4     3     4    1
     5     3    29    1
     6     4     5   am
     7     4    30    1
     8     5     6    2
     9     5     7    1
    10     7     8   ar
    11     8     9   ar
    12     8    31    1
    13     9    10   ar
    14     9    32    1
    15    10    11   ar
    16    10    33    1
    17    11    12    1
    18    11    22   ar
    19    12    13    2
    20    12    14    2
    21    12    15    1
    22    15    16    1
    23    15    34    1
    24    16    17   ar
    25    17    18   ar
    26    17    35    1
    27    18    19   ar
    28    18    36    1
    29    19    20   ar
    30    19    37    1
    31    20    21   ar
    32    20    38    1
    33    21    16   ar
    34    21    39    1
    35    22     7   ar
    36    22    40    1
    37    23    24   ar
    38    24    25   ar
    39    24    41    1
    40    25    26   ar
    41    25    42    1
    42    26    27   ar
    43    26    43    1
    44    27    28   ar
    45    27    44    1
    46    28    23   ar
    47    28    45    1
@<TRIPOS>MOLECULE
*****
 45 47 0 0 0
SMALL
GASTEIGER

@<TRIPOS>ATOM
      1 O           5.5962   -1.0196    1.5253 O.2     1  UNL11      -0.2687
      2 C           4.3470   -1.1415    1.2908 C.2     1  UNL11       0.2601
      3 N           3.9739   -1.1980   -0.0693 N.am    1  UNL11      -0.2301
      4 N           2.6812   -1.3145   -0.5738 N.am    1  UNL11      -0.2301
      5 C           1.5174   -0.8451    0.0212 C.2     1  UNL11       0.2602
      6 O           1.6073   -0.2406    1.1461 O.2     1  UNL11      -0.2687
      7 C           0.1718   -0.9691   -0.5154 C.ar    1  UNL11       0.0400
      8 C          -0.2116   -2.0205   -1.3236 C.ar    1  UNL11      -0.0495
      9 C          -1.5022   -2.1668   -1.8220 C.ar    1  UNL11      -0.0592
     10 C          -2.4445   -1.1910   -1.4768 C.ar    1  UNL11      -0.0350
     11 C          -2.0899   -0.1310   -0.6719 C.ar    1  UNL11       0.1092
     12 S          -3.3361    1.0275   -0.2783 S.O2    1  UNL11       0.0724
     13 O          -2.9138    2.3907   -0.7517 O.2     1  UNL11      -0.1500
     14 O          -3.5084    1.0163    1.2313 O.2     1  UNL11      -0.1500
     15 N          -4.8356    0.6347   -0.9836 N.pl3   1  UNL11      -0.2163
     16 C          -5.1598   -0.7221   -1.2233 C.ar    1  UNL11       0.0480
     17 C          -4.8612   -1.3662   -2.4062 C.ar    1  UNL11      -0.0393
     18 C          -5.1539   -2.6593   -2.6922 C.ar    1  UNL11      -0.0600
     19 C          -5.8028   -3.4191   -1.7414 C.ar    1  UNL11      -0.0616
     20 C          -6.1254   -2.8245   -0.5399 C.ar    1  UNL11      -0.0600
     21 C          -5.8162   -1.5097   -0.2772 C.ar    1  UNL11      -0.0393
     22 C          -0.8058   -0.0345   -0.2084 C.ar    1  UNL11      -0.0229
     23 C           3.4062   -1.2162    2.3830 C.ar    1  UNL11       0.0382
     24 C           3.6058   -0.6057    3.6160 C.ar    1  UNL11      -0.0496
     25 C           2.6818   -0.6852    4.6494 C.ar    1  UNL11      -0.0610
     26 C           1.5205   -1.3894    4.4642 C.ar    1  UNL11      -0.0617
     27 C           1.2875   -2.0097    3.2524 C.ar    1  UNL11      -0.0610
     28 C           2.2225   -1.9133    2.2457 C.ar    1  UNL11      -0.0496
     29 H           4.7843   -1.1396   -0.7618 H       1  UNL11       0.1731
     30 H           2.5932   -1.8194   -1.5124 H       1  UNL11       0.1731
     31 H           0.5020   -2.7675   -1.5967 H       1  UNL11       0.0625
     32 H          -1.8013   -2.9906   -2.4532 H       1  UNL11       0.0618
     33 H          -3.4434   -1.3122   -1.8661 H       1  UNL11       0.0637
     34 H          -5.5523    1.3545   -1.2599 H       1  UNL11       0.1737
     35 H          -4.3536   -0.7860   -3.1709 H       1  UNL11       0.0636
     36 H          -4.8936   -3.1016   -3.6427 H       1  UNL11       0.0618
     37 H          -6.0159   -4.4413   -2.0073 H       1  UNL11       0.0618
     38 H          -6.6351   -3.4448    0.1843 H       1  UNL11       0.0618
     39 H          -6.0804   -1.0826    0.6676 H       1  UNL11       0.0636
     40 H          -0.5499    0.7973    0.4099 H       1  UNL11       0.0645
     41 H           4.5304   -0.0520    3.7471 H       1  UNL11       0.0625
     42 H           2.8601   -0.1955    5.6118 H       1  UNL11       0.0618
     43 H           0.8061   -1.4352    5.2950 H       1  UNL11       0.0618
     44 H           0.3722   -2.5558    3.1288 H       1  UNL11       0.0618
     45 H           2.0247   -2.4052    1.2812 H       1  UNL11       0.0625
@<TRIPOS>BOND
     1     1     2    2
     2     2     3   am
     3     2    23    1
     4     3     4    1
     5     3    29    1
     6     4     5   am
     7     4    30    1
     8     5     6    2
     9     5     7    1
    10     7     8   ar
    11     8     9   ar
    12     8    31    1
    13     9    10   ar
    14     9    32    1
    15    10    11   ar
    16    10    33    1
    17    11    12    1
    18    11    22   ar
    19    12    13    2
    20    12    14    2
    21    12    15    1
    22    15    16    1
    23    15    34    1
    24    16    17   ar
    25    17    18   ar
    26    17    35    1
    27    18    19   ar
    28    18    36    1
    29    19    20   ar
    30    19    37    1
    31    20    21   ar
    32    20    38    1
    33    21    16   ar
    34    21    39    1
    35    22     7   ar
    36    22    40    1
    37    23    24   ar
    38    24    25   ar
    39    24    41    1
    40    25    26   ar
    41    25    42    1
    42    26    27   ar
    43    26    43    1
    44    27    28   ar
    45    27    44    1
    46    28    23   ar
    47    28    45    1
@<TRIPOS>MOLECULE
*****
 45 47 0 0 0
SMALL
GASTEIGER

@<TRIPOS>ATOM
      1 O           2.1932   -2.5482   -3.9250 O.2     1  UNL11      -0.2687
      2 C           1.9250   -1.8235   -2.9085 C.2     1  UNL11       0.2601
      3 N           2.7774   -1.9784   -1.7940 N.am    1  UNL11      -0.2301
      4 N           2.6812   -1.3145   -0.5738 N.am    1  UNL11      -0.2301
      5 C           1.5174   -0.8451    0.0212 C.2     1  UNL11       0.2602
      6 O           1.6073   -0.2406    1.1461 O.2     1  UNL11      -0.2687
      7 C           0.1718   -0.9691   -0.5154 C.ar    1  UNL11       0.0400
      8 C          -0.2116   -2.0205   -1.3236 C.ar    1  UNL11      -0.0495
      9 C          -1.5022   -2.1668   -1.8220 C.ar    1  UNL11      -0.0592
     10 C          -2.4445   -1.1910   -1.4768 C.ar    1  UNL11      -0.0350
     11 C          -2.0899   -0.1310   -0.6719 C.ar    1  UNL11       0.1092
     12 S          -3.3361    1.0275   -0.2783 S.O2    1  UNL11       0.0724
     13 O          -3.8521    1.6510   -1.5454 O.2     1  UNL11      -0.1500
     14 O          -2.7110    2.0820    0.6194 O.2     1  UNL11      -0.1500
     15 N          -4.6376    0.3220    0.5634 N.pl3   1  UNL11      -0.2163
     16 C          -5.7396    1.1248    0.9438 C.ar    1  UNL11       0.0480
     17 C          -5.8047    1.7829    2.1546 C.ar    1  UNL11      -0.0393
     18 C          -6.8363    2.5576    2.5732 C.ar    1  UNL11      -0.0600
     19 C          -7.9244    2.7207    1.7413 C.ar    1  UNL11      -0.0616
     20 C          -7.9116    2.0844    0.5181 C.ar    1  UNL11      -0.0600
     21 C          -6.8509    1.3037    0.1195 C.ar    1  UNL11      -0.0393
     22 C          -0.8058   -0.0345   -0.2084 C.ar    1  UNL11      -0.0229
     23 C           0.8076   -0.9104   -2.9411 C.ar    1  UNL11       0.0382
     24 C          -0.3409   -1.1235   -3.6951 C.ar    1  UNL11      -0.0496
     25 C          -1.4069   -0.2338   -3.7039 C.ar    1  UNL11      -0.0610
     26 C          -1.3418    0.9056   -2.9447 C.ar    1  UNL11      -0.0617
     27 C          -0.2164    1.1515   -2.1828 C.ar    1  UNL11      -0.0610
     28 C           0.8253    0.2504   -2.1941 C.ar    1  UNL11      -0.0496
     29 H           3.5660   -2.6860   -1.9248 H       1  UNL11       0.1731
     30 H           3.6043   -1.1571   -0.0573 H       1  UNL11       0.1731
     31 H           0.5020   -2.7675   -1.5967 H       1  UNL11       0.0625
     32 H          -1.8013   -2.9906   -2.4532 H       1  UNL11       0.0618
     33 H          -3.4434   -1.3122   -1.8661 H       1  UNL11       0.0637
     34 H          -4.6742   -0.6968    0.8254 H       1  UNL11       0.1737
     35 H          -4.9606    1.6656    2.8274 H       1  UNL11       0.0636
     36 H          -6.8243    3.0431    3.5380 H       1  UNL11       0.0618
     37 H          -8.7217    3.3443    2.1104 H       1  UNL11       0.0618
     38 H          -8.7790    2.2298   -0.1108 H       1  UNL11       0.0618
     39 H          -6.8752    0.8270   -0.8380 H       1  UNL11       0.0636
     40 H          -0.5499    0.7973    0.4099 H       1  UNL11       0.0645
     41 H          -0.3770   -2.0302   -4.2911 H       1  UNL11       0.0625
     42 H          -2.3017   -0.4230   -4.3050 H       1  UNL11       0.0618
     43 H          -2.1976    1.5909   -2.9674 H       1  UNL11       0.0618
     44 H          -0.1861    2.0493   -1.5961 H       1  UNL11       0.0618
     45 H           1.7150    0.4517   -1.5782 H       1  UNL11       0.0625
@<TRIPOS>BOND
     1     1     2    2
     2     2     3   am
     3     2    23    1
     4     3     4    1
     5     3    29    1
     6     4     5   am
     7     4    30    1
     8     5     6    2
     9     5     7    1
    10     7     8   ar
    11     8     9   ar
    12     8    31    1
    13     9    10   ar
    14     9    32    1
    15    10    11   ar
    16    10    33    1
    17    11    12    1
    18    11    22   ar
    19    12    13    2
    20    12    14    2
    21    12    15    1
    22    15    16    1
    23    15    34    1
    24    16    17   ar
    25    17    18   ar
    26    17    35    1
    27    18    19   ar
    28    18    36    1
    29    19    20   ar
    30    19    37    1
    31    20    21   ar
    32    20    38    1
    33    21    16   ar
    34    21    39    1
    35    22     7   ar
    36    22    40    1
    37    23    24   ar
    38    24    25   ar
    39    24    41    1
    40    25    26   ar
    41    25    42    1
    42    26    27   ar
    43    26    43    1
    44    27    28   ar
    45    27    44    1
    46    28    23   ar
    47    28    45    1
@<TRIPOS>MOLECULE
*****
 45 47 0 0 0
SMALL
GASTEIGER

@<TRIPOS>ATOM
      1 O           5.5035    1.4373    1.1598 O.2     1  UNL11      -0.2687
      2 C           4.3640    1.5330    0.5916 C.2     1  UNL11       0.2601
      3 N           3.4631    0.4718    0.8255 N.am    1  UNL11      -0.2301
      4 N           2.1764    0.3430    0.3091 N.am    1  UNL11      -0.2301
      5 C           1.5174   -0.8451    0.0212 C.2     1  UNL11       0.2602
      6 O           2.1257   -1.9498    0.2411 O.2     1  UNL11      -0.2687
      7 C           0.1718   -0.9691   -0.5154 C.ar    1  UNL11       0.0400
      8 C          -0.2116   -2.0205   -1.3236 C.ar    1  UNL11      -0.0495
      9 C          -1.5022   -2.1668   -1.8220 C.ar    1  UNL11      -0.0592
     10 C          -2.4445   -1.1910   -1.4768 C.ar    1  UNL11      -0.0350
     11 C          -2.0899   -0.1310   -0.6719 C.ar    1  UNL11       0.1092
     12 S          -3.3361    1.0275   -0.2783 S.O2    1  UNL11       0.0724
     13 O          -4.4589    0.3258    0.4342 O.2     1  UNL11      -0.1500
     14 O          -3.8266    1.6305   -1.5838 O.2     1  UNL11      -0.1500
     15 N          -2.7603    2.2935    0.7044 N.pl3   1  UNL11      -0.2163
     16 C          -1.6904    2.0512    1.5988 C.ar    1  UNL11       0.0480
     17 C          -1.8812    1.6334    2.8997 C.ar    1  UNL11      -0.0393
     18 C          -0.8958    1.3933    3.8003 C.ar    1  UNL11      -0.0600
     19 C           0.4158    1.5723    3.4128 C.ar    1  UNL11      -0.0616
     20 C           0.6637    1.9895    2.1222 C.ar    1  UNL11      -0.0600
     21 C          -0.3564    2.2259    1.2295 C.ar    1  UNL11      -0.0393
     22 C          -0.8058   -0.0345   -0.2084 C.ar    1  UNL11      -0.0229
     23 C           4.0560    2.6781   -0.2314 C.ar    1  UNL11       0.0382
     24 C           2.7745    3.1949   -0.3854 C.ar    1  UNL11      -0.0496
     25 C           2.5040    4.3033   -1.1768 C.ar    1  UNL11      -0.0610
     26 C           3.5293    4.9257   -1.8403 C.ar    1  UNL11      -0.0617
     27 C           4.8160    4.4404   -1.7117 C.ar    1  UNL11      -0.0610
     28 C           5.0537    3.3391   -0.9194 C.ar    1  UNL11      -0.0496
     29 H           3.8321   -0.3001    1.4641 H       1  UNL11       0.1731
     30 H           1.6587    1.2594    0.1195 H       1  UNL11       0.1731
     31 H           0.5020   -2.7675   -1.5967 H       1  UNL11       0.0625
     32 H          -1.8013   -2.9906   -2.4532 H       1  UNL11       0.0618
     33 H          -3.4434   -1.3122   -1.8661 H       1  UNL11       0.0637
     34 H          -3.1604    3.2671    0.6888 H       1  UNL11       0.1737
     35 H          -2.9062    1.4897    3.2278 H       1  UNL11       0.0636
     36 H          -1.1158    1.0703    4.8073 H       1  UNL11       0.0618
     37 H           1.1682    1.3699    4.1571 H       1  UNL11       0.0618
     38 H           1.7013    2.1226    1.8488 H       1  UNL11       0.0618
     39 H          -0.1257    2.5469    0.2353 H       1  UNL11       0.0636
     40 H          -0.5499    0.7973    0.4099 H       1  UNL11       0.0645
     41 H           1.9734    2.6907    0.1463 H       1  UNL11       0.0625
     42 H           1.4869    4.6931   -1.2825 H       1  UNL11       0.0618
     43 H           3.2898    5.8002   -2.4572 H       1  UNL11       0.0618
     44 H           5.6036    4.9425   -2.2398 H       1  UNL11       0.0618
     45 H           6.0834    2.9640   -0.8177 H       1  UNL11       0.0625
@<TRIPOS>BOND
     1     1     2    2
     2     2     3   am
     3     2    23    1
     4     3     4    1
     5     3    29    1
     6     4     5   am
     7     4    30    1
     8     5     6    2
     9     5     7    1
    10     7     8   ar
    11     8     9   ar
    12     8    31    1
    13     9    10   ar
    14     9    32    1
    15    10    11   ar
    16    10    33    1
    17    11    12    1
    18    11    22   ar
    19    12    13    2
    20    12    14    2
    21    12    15    1
    22    15    16    1
    23    15    34    1
    24    16    17   ar
    25    17    18   ar
    26    17    35    1
    27    18    19   ar
    28    18    36    1
    29    19    20   ar
    30    19    37    1
    31    20    21   ar
    32    20    38    1
    33    21    16   ar
    34    21    39    1
    35    22     7   ar
    36    22    40    1
    37    23    24   ar
    38    24    25   ar
    39    24    41    1
    40    25    26   ar
    41    25    42    1
    42    26    27   ar
    43    26    43    1
    44    27    28   ar
    45    27    44    1
    46    28    23   ar
    47    28    45    1
@<TRIPOS>MOLECULE
*****
 45 47 0 0 0
SMALL
GASTEIGER

@<TRIPOS>ATOM
      1 O           5.3202    1.5578    1.5864 O.2     1  UNL11      -0.2687
      2 C           4.1324    1.6760    1.1329 C.2     1  UNL11       0.2601
      3 N           3.4631    0.4718    0.8255 N.am    1  UNL11      -0.2301
      4 N           2.1764    0.3430    0.3091 N.am    1  UNL11      -0.2301
      5 C           1.5174   -0.8451    0.0212 C.2     1  UNL11       0.2602
      6 O           2.1257   -1.9498    0.2411 O.2     1  UNL11      -0.2687
      7 C           0.1718   -0.9691   -0.5154 C.ar    1  UNL11       0.0400
      8 C          -0.2116   -2.0205   -1.3236 C.ar    1  UNL11      -0.0495
      9 C          -1.5022   -2.1668   -1.8220 C.ar    1  UNL11      -0.0592
     10 C          -2.4445   -1.1910   -1.4768 C.ar    1  UNL11      -0.0350
     11 C          -2.0899   -0.1310   -0.6719 C.ar    1  UNL11       0.1092
     12 S          -3.3361    1.0275   -0.2783 S.O2    1  UNL11       0.0724
     13 O          -2.9138    2.3907   -0.7517 O.2     1  UNL11      -0.1500
     14 O          -3.5084    1.0163    1.2313 O.2     1  UNL11      -0.1500
     15 N          -4.8356    0.6347   -0.9836 N.pl3   1  UNL11      -0.2163
     16 C          -4.9380    0.5284   -2.3914 C.ar    1  UNL11       0.0480
     17 C          -5.2631    1.5966   -3.2017 C.ar    1  UNL11      -0.0393
     18 C          -5.3818    1.5506   -4.5521 C.ar    1  UNL11      -0.0600
     19 C          -5.1649    0.3509   -5.1972 C.ar    1  UNL11      -0.0616
     20 C          -4.8369   -0.7500   -4.4346 C.ar    1  UNL11      -0.0600
     21 C          -4.7237   -0.6741   -3.0653 C.ar    1  UNL11      -0.0393
     22 C          -0.8058   -0.0345   -0.2084 C.ar    1  UNL11      -0.0229
     23 C           3.5460    2.9839    0.9628 C.ar    1  UNL11       0.0382
     24 C           4.2042    4.1699    1.2679 C.ar    1  UNL11      -0.0496
     25 C           3.6217    5.4174    1.0880 C.ar    1  UNL11      -0.0610
     26 C           2.3473    5.5023    0.5904 C.ar    1  UNL11      -0.0617
     27 C           1.6618    4.3452    0.2761 C.ar    1  UNL11      -0.0610
     28 C           2.2657    3.1217    0.4652 C.ar    1  UNL11      -0.0496
     29 H           4.0245   -0.4165    1.0139 H       1  UNL11       0.1731
     30 H           1.6587    1.2594    0.1195 H       1  UNL11       0.1731
     31 H           0.5020   -2.7675   -1.5967 H       1  UNL11       0.0625
     32 H          -1.8013   -2.9906   -2.4532 H       1  UNL11       0.0618
     33 H          -3.4434   -1.3122   -1.8661 H       1  UNL11       0.0637
     34 H          -5.7114    0.4633   -0.4254 H       1  UNL11       0.1737
     35 H          -5.4421    2.5504   -2.7148 H       1  UNL11       0.0636
     36 H          -5.6434    2.4266   -5.1273 H       1  UNL11       0.0618
     37 H          -5.2679    0.3571   -6.2697 H       1  UNL11       0.0618
     38 H          -4.6747   -1.6761   -4.9685 H       1  UNL11       0.0618
     39 H          -4.4653   -1.5491   -2.5065 H       1  UNL11       0.0636
     40 H          -0.5499    0.7973    0.4099 H       1  UNL11       0.0645
     41 H           5.2126    4.0859    1.6612 H       1  UNL11       0.0625
     42 H           4.1596    6.3380    1.3346 H       1  UNL11       0.0618
     43 H           1.9108    6.4992    0.4557 H       1  UNL11       0.0618
     44 H           0.6654    4.4343   -0.1119 H       1  UNL11       0.0618
     45 H           1.7139    2.2056    0.2053 H       1  UNL11       0.0625
@<TRIPOS>BOND
     1     1     2    2
     2     2     3   am
     3     2    23    1
     4     3     4    1
     5     3    29    1
     6     4     5   am
     7     4    30    1
     8     5     6    2
     9     5     7    1
    10     7     8   ar
    11     8     9   ar
    12     8    31    1
    13     9    10   ar
    14     9    32    1
    15    10    11   ar
    16    10    33    1
    17    11    12    1
    18    11    22   ar
    19    12    13    2
    20    12    14    2
    21    12    15    1
    22    15    16    1
    23    15    34    1
    24    16    17   ar
    25    17    18   ar
    26    17    35    1
    27    18    19   ar
    28    18    36    1
    29    19    20   ar
    30    19    37    1
    31    20    21   ar
    32    20    38    1
    33    21    16   ar
    34    21    39    1
    35    22     7   ar
    36    22    40    1
    37    23    24   ar
    38    24    25   ar
    39    24    41    1
    40    25    26   ar
    41    25    42    1
    42    26    27   ar
    43    26    43    1
    44    27    28   ar
    45    27    44    1
    46    28    23   ar
    47    28    45    1
@<TRIPOS>MOLECULE
*****
 45 47 0 0 0
SMALL
GASTEIGER

@<TRIPOS>ATOM
      1 O           4.2853   -3.8556    0.4359 O.2     1  UNL11      -0.2687
      2 C           4.7347   -2.6771    0.6350 C.2     1  UNL11       0.2601
      3 N           3.8594   -1.6171    0.3145 N.am    1  UNL11      -0.2301
      4 N           2.5673   -1.7287   -0.1924 N.am    1  UNL11      -0.2301
      5 C           1.5174   -0.8451    0.0212 C.2     1  UNL11       0.2602
      6 O           1.7251    0.1850    0.7524 O.2     1  UNL11      -0.2687
      7 C           0.1718   -0.9691   -0.5154 C.ar    1  UNL11       0.0400
      8 C          -0.2116   -2.0205   -1.3236 C.ar    1  UNL11      -0.0495
      9 C          -1.5022   -2.1668   -1.8220 C.ar    1  UNL11      -0.0592
     10 C          -2.4445   -1.1910   -1.4768 C.ar    1  UNL11      -0.0350
     11 C          -2.0899   -0.1310   -0.6719 C.ar    1  UNL11       0.1092
     12 S          -3.3361    1.0275   -0.2783 S.O2    1  UNL11       0.0724
     13 O          -4.3162    1.1077   -1.4157 O.2     1  UNL11      -0.1500
     14 O          -2.6584    2.3701   -0.0620 O.2     1  UNL11      -0.1500
     15 N          -4.1732    0.6229    1.1485 N.pl3   1  UNL11      -0.2163
     16 C          -4.8565   -0.6141    1.2295 C.ar    1  UNL11       0.0480
     17 C          -4.2636   -1.7683    1.6983 C.ar    1  UNL11      -0.0393
     18 C          -4.8669   -2.9795    1.7911 C.ar    1  UNL11      -0.0600
     19 C          -6.1819   -3.0986    1.3920 C.ar    1  UNL11      -0.0616
     20 C          -6.8232   -1.9752    0.9147 C.ar    1  UNL11      -0.0600
     21 C          -6.1857   -0.7586    0.8314 C.ar    1  UNL11      -0.0393
     22 C          -0.8058   -0.0345   -0.2084 C.ar    1  UNL11      -0.0229
     23 C           6.0651   -2.4857    1.1613 C.ar    1  UNL11       0.0382
     24 C           6.6204   -1.2374    1.4188 C.ar    1  UNL11      -0.0496
     25 C           7.9004   -1.0788    1.9330 C.ar    1  UNL11      -0.0610
     26 C           8.6614   -2.1862    2.2039 C.ar    1  UNL11      -0.0617
     27 C           8.1433   -3.4431    1.9606 C.ar    1  UNL11      -0.0610
     28 C           6.8702   -3.5692    1.4502 C.ar    1  UNL11      -0.0496
     29 H           4.2511   -0.6399    0.4919 H       1  UNL11       0.1731
     30 H           2.3812   -2.5865   -0.8034 H       1  UNL11       0.1731
     31 H           0.5020   -2.7675   -1.5967 H       1  UNL11       0.0625
     32 H          -1.8013   -2.9906   -2.4532 H       1  UNL11       0.0618
     33 H          -3.4434   -1.3122   -1.8661 H       1  UNL11       0.0637
     34 H          -4.2162    1.2500    1.9928 H       1  UNL11       0.1737
     35 H          -3.2272   -1.6988    2.0144 H       1  UNL11       0.0636
     36 H          -4.3419   -3.8461    2.1654 H       1  UNL11       0.0618
     37 H          -6.6244   -4.0768    1.4828 H       1  UNL11       0.0618
     38 H          -7.8524   -2.1005    0.6080 H       1  UNL11       0.0618
     39 H          -6.7161    0.0921    0.4576 H       1  UNL11       0.0636
     40 H          -0.5499    0.7973    0.4099 H       1  UNL11       0.0645
     41 H           6.0053   -0.3703    1.1987 H       1  UNL11       0.0625
     42 H           8.3166   -0.0856    2.1285 H       1  UNL11       0.0618
     43 H           9.6680   -2.0341    2.6114 H       1  UNL11       0.0618
     44 H           8.7559   -4.2964    2.1797 H       1  UNL11       0.0618
     45 H           6.4635   -4.5753    1.2663 H       1  UNL11       0.0625
@<TRIPOS>BOND
     1     1     2    2
     2     2     3   am
     3     2    23    1
     4     3     4    1
     5     3    29    1
     6     4     5   am
     7     4    30    1
     8     5     6    2
     9     5     7    1
    10     7     8   ar
    11     8     9   ar
    12     8    31    1
    13     9    10   ar
    14     9    32    1
    15    10    11   ar
    16    10    33    1
    17    11    12    1
    18    11    22   ar
    19    12    13    2
    20    12    14    2
    21    12    15    1
    22    15    16    1
    23    15    34    1
    24    16    17   ar
    25    17    18   ar
    26    17    35    1
    27    18    19   ar
    28    18    36    1
    29    19    20   ar
    30    19    37    1
    31    20    21   ar
    32    20    38    1
    33    21    16   ar
    34    21    39    1
    35    22     7   ar
    36    22    40    1
    37    23    24   ar
    38    24    25   ar
    39    24    41    1
    40    25    26   ar
    41    25    42    1
    42    26    27   ar
    43    26    43    1
    44    27    28   ar
    45    27    44    1
    46    28    23   ar
    47    28    45    1
@<TRIPOS>MOLECULE
*****
 45 47 0 0 0
SMALL
GASTEIGER

@<TRIPOS>ATOM
      1 O           3.5326    2.7338    0.8701 O.2     1  UNL11      -0.2687
      2 C           2.3401    2.8412    0.4264 C.2     1  UNL11       0.2601
      3 N           1.6701    1.6303    0.1486 N.am    1  UNL11      -0.2301
      4 N           2.1764    0.3430    0.3091 N.am    1  UNL11      -0.2301
      5 C           1.5174   -0.8451    0.0212 C.2     1  UNL11       0.2602
      6 O           2.1257   -1.9498    0.2411 O.2     1  UNL11      -0.2687
      7 C           0.1718   -0.9691   -0.5154 C.ar    1  UNL11       0.0400
      8 C          -0.2116   -2.0205   -1.3236 C.ar    1  UNL11      -0.0495
      9 C          -1.5022   -2.1668   -1.8220 C.ar    1  UNL11      -0.0592
     10 C          -2.4445   -1.1910   -1.4768 C.ar    1  UNL11      -0.0350
     11 C          -2.0899   -0.1310   -0.6719 C.ar    1  UNL11       0.1092
     12 S          -3.3361    1.0275   -0.2783 S.O2    1  UNL11       0.0724
     13 O          -4.3162    1.1077   -1.4157 O.2     1  UNL11      -0.1500
     14 O          -2.6584    2.3701   -0.0620 O.2     1  UNL11      -0.1500
     15 N          -4.1732    0.6229    1.1485 N.pl3   1  UNL11      -0.2163
     16 C          -4.8565   -0.6141    1.2295 C.ar    1  UNL11       0.0480
     17 C          -4.2636   -1.7683    1.6983 C.ar    1  UNL11      -0.0393
     18 C          -4.8669   -2.9795    1.7911 C.ar    1  UNL11      -0.0600
     19 C          -6.1819   -3.0986    1.3920 C.ar    1  UNL11      -0.0616
     20 C          -6.8232   -1.9752    0.9147 C.ar    1  UNL11      -0.0600
     21 C          -6.1857   -0.7586    0.8314 C.ar    1  UNL11      -0.0393
     22 C          -0.8058   -0.0345   -0.2084 C.ar    1  UNL11      -0.0229
     23 C           1.7494    4.1447    0.2375 C.ar    1  UNL11       0.0382
     24 C           2.4812    5.2857   -0.0716 C.ar    1  UNL11      -0.0496
     25 C           1.8892    6.5279   -0.2566 C.ar    1  UNL11      -0.0610
     26 C           0.5297    6.6531   -0.1337 C.ar    1  UNL11      -0.0617
     27 C          -0.2304    5.5414    0.1729 C.ar    1  UNL11      -0.0610
     28 C           0.3850    4.3221    0.3507 C.ar    1  UNL11      -0.0496
     29 H           0.6732    1.7405   -0.2171 H       1  UNL11       0.1731
     30 H           3.1719    0.2808    0.6947 H       1  UNL11       0.1731
     31 H           0.5020   -2.7675   -1.5967 H       1  UNL11       0.0625
     32 H          -1.8013   -2.9906   -2.4532 H       1  UNL11       0.0618
     33 H          -3.4434   -1.3122   -1.8661 H       1  UNL11       0.0637
     34 H          -4.2162    1.2500    1.9928 H       1  UNL11       0.1737
     35 H          -3.2272   -1.6988    2.0144 H       1  UNL11       0.0636
     36 H          -4.3419   -3.8461    2.1654 H       1  UNL11       0.0618
     37 H          -6.6244   -4.0768    1.4828 H       1  UNL11       0.0618
     38 H          -7.8524   -2.1005    0.6080 H       1  UNL11       0.0618
     39 H          -6.7161    0.0921    0.4576 H       1  UNL11       0.0636
     40 H          -0.5499    0.7973    0.4099 H       1  UNL11       0.0645
     41 H           3.5566    5.1701   -0.1652 H       1  UNL11       0.0625
     42 H           2.4857    7.4125   -0.5002 H       1  UNL11       0.0618
     43 H           0.0864    7.6444   -0.2867 H       1  UNL11       0.0618
     44 H          -1.2926    5.6617    0.2646 H       1  UNL11       0.0618
     45 H          -0.2299    3.4407    0.5879 H       1  UNL11       0.0625
@<TRIPOS>BOND
     1     1     2    2
     2     2     3   am
     3     2    23    1
     4     3     4    1
     5     3    29    1
     6     4     5   am
     7     4    30    1
     8     5     6    2
     9     5     7    1
    10     7     8   ar
    11     8     9   ar
    12     8    31    1
    13     9    10   ar
    14     9    32    1
    15    10    11   ar
    16    10    33    1
    17    11    12    1
    18    11    22   ar
    19    12    13    2
    20    12    14    2
    21    12    15    1
    22    15    16    1
    23    15    34    1
    24    16    17   ar
    25    17    18   ar
    26    17    35    1
    27    18    19   ar
    28    18    36    1
    29    19    20   ar
    30    19    37    1
    31    20    21   ar
    32    20    38    1
    33    21    16   ar
    34    21    39    1
    35    22     7   ar
    36    22    40    1
    37    23    24   ar
    38    24    25   ar
    39    24    41    1
    40    25    26   ar
    41    25    42    1
    42    26    27   ar
    43    26    43    1
    44    27    28   ar
    45    27    44    1
    46    28    23   ar
    47    28    45    1
@<TRIPOS>MOLECULE
*****
 45 47 0 0 0
SMALL
GASTEIGER

@<TRIPOS>ATOM
      1 O           5.3054   -0.1109    2.0394 O.2     1  UNL11      -0.2687
      2 C           4.1269   -0.4400    1.6744 C.2     1  UNL11       0.2601
      3 N           3.4631    0.4718    0.8255 N.am    1  UNL11      -0.2301
      4 N           2.1764    0.3430    0.3091 N.am    1  UNL11      -0.2301
      5 C           1.5174   -0.8451    0.0212 C.2     1  UNL11       0.2602
      6 O           2.1257   -1.9498    0.2411 O.2     1  UNL11      -0.2687
      7 C           0.1718   -0.9691   -0.5154 C.ar    1  UNL11       0.0400
      8 C          -0.2116   -2.0205   -1.3236 C.ar    1  UNL11      -0.0495
      9 C          -1.5022   -2.1668   -1.8220 C.ar    1  UNL11      -0.0592
     10 C          -2.4445   -1.1910   -1.4768 C.ar    1  UNL11      -0.0350
     11 C          -2.0899   -0.1310   -0.6719 C.ar    1  UNL11       0.1092
     12 S          -3.3361    1.0275   -0.2783 S.O2    1  UNL11       0.0724
     13 O          -4.6164    0.6296   -0.9588 O.2     1  UNL11      -0.1500
     14 O          -2.8684    2.3858   -0.7732 O.2     1  UNL11      -0.1500
     15 N          -3.6111    1.1426    1.3984 N.pl3   1  UNL11      -0.2163
     16 C          -2.5483    0.8905    2.2986 C.ar    1  UNL11       0.0480
     17 C          -1.6994    1.8793    2.7514 C.ar    1  UNL11      -0.0393
     18 C          -0.6630    1.6940    3.6066 C.ar    1  UNL11      -0.0600
     19 C          -0.4124    0.4232    4.0806 C.ar    1  UNL11      -0.0616
     20 C          -1.2310   -0.6034    3.6597 C.ar    1  UNL11      -0.0600
     21 C          -2.2756   -0.3861    2.7907 C.ar    1  UNL11      -0.0393
     22 C          -0.8058   -0.0345   -0.2084 C.ar    1  UNL11      -0.0229
     23 C           3.5466   -1.6825    2.1249 C.ar    1  UNL11       0.0382
     24 C           2.2773   -2.1177    1.7611 C.ar    1  UNL11      -0.0496
     25 C           1.7436   -3.3216    2.2012 C.ar    1  UNL11      -0.0610
     26 C           2.4836   -4.1262    3.0282 C.ar    1  UNL11      -0.0617
     27 C           3.7489   -3.7268    3.4113 C.ar    1  UNL11      -0.0610
     28 C           4.2520   -2.5271    2.9585 C.ar    1  UNL11      -0.0496
     29 H           4.0258    1.3429    0.5719 H       1  UNL11       0.1731
     30 H           1.6587    1.2594    0.1195 H       1  UNL11       0.1731
     31 H           0.5020   -2.7675   -1.5967 H       1  UNL11       0.0625
     32 H          -1.8013   -2.9906   -2.4532 H       1  UNL11       0.0618
     33 H          -3.4434   -1.3122   -1.8661 H       1  UNL11       0.0637
     34 H          -4.5437    1.3941    1.8167 H       1  UNL11       0.1737
     35 H          -1.8757    2.8872    2.3882 H       1  UNL11       0.0636
     36 H          -0.0336    2.5143    3.9191 H       1  UNL11       0.0618
     37 H           0.4187    0.3188    4.7583 H       1  UNL11       0.0618
     38 H          -1.0085   -1.5881    4.0469 H       1  UNL11       0.0618
     39 H          -2.8911   -1.2070    2.4875 H       1  UNL11       0.0636
     40 H          -0.5499    0.7973    0.4099 H       1  UNL11       0.0645
     41 H           1.7038   -1.4692    1.1060 H       1  UNL11       0.0625
     42 H           0.7418   -3.6441    1.9009 H       1  UNL11       0.0618
     43 H           2.0403   -5.0728    3.3600 H       1  UNL11       0.0618
     44 H           4.3110   -4.3715    4.0591 H       1  UNL11       0.0618
     45 H           5.2641   -2.2207    3.2638 H       1  UNL11       0.0625
@<TRIPOS>BOND
     1     1     2    2
     2     2     3   am
     3     2    23    1
     4     3     4    1
     5     3    29    1
     6     4     5   am
     7     4    30    1
     8     5     6    2
     9     5     7    1
    10     7     8   ar
    11     8     9   ar
    12     8    31    1
    13     9    10   ar
    14     9    32    1
    15    10    11   ar
    16    10    33    1
    17    11    12    1
    18    11    22   ar
    19    12    13    2
    20    12    14    2
    21    12    15    1
    22    15    16    1
    23    15    34    1
    24    16    17   ar
    25    17    18   ar
    26    17    35    1
    27    18    19   ar
    28    18    36    1
    29    19    20   ar
    30    19    37    1
    31    20    21   ar
    32    20    38    1
    33    21    16   ar
    34    21    39    1
    35    22     7   ar
    36    22    40    1
    37    23    24   ar
    38    24    25   ar
    39    24    41    1
    40    25    26   ar
    41    25    42    1
    42    26    27   ar
    43    26    43    1
    44    27    28   ar
    45    27    44    1
    46    28    23   ar
    47    28    45    1
@<TRIPOS>MOLECULE
*****
 45 47 0 0 0
SMALL
GASTEIGER

@<TRIPOS>ATOM
      1 O           5.7142   -0.8378    1.1823 O.2     1  UNL11      -0.2687
      2 C           4.5714   -0.7213    0.6246 C.2     1  UNL11       0.2601
      3 N           3.6673   -1.7846    0.8351 N.am    1  UNL11      -0.2301
      4 N           2.3765   -1.8934    0.3238 N.am    1  UNL11      -0.2301
      5 C           1.5174   -0.8451    0.0212 C.2     1  UNL11       0.2602
      6 O           1.9217    0.3531    0.2205 O.2     1  UNL11      -0.2687
      7 C           0.1718   -0.9691   -0.5154 C.ar    1  UNL11       0.0400
      8 C          -0.2116   -2.0205   -1.3236 C.ar    1  UNL11      -0.0495
      9 C          -1.5022   -2.1668   -1.8220 C.ar    1  UNL11      -0.0592
     10 C          -2.4445   -1.1910   -1.4768 C.ar    1  UNL11      -0.0350
     11 C          -2.0899   -0.1310   -0.6719 C.ar    1  UNL11       0.1092
     12 S          -3.3361    1.0275   -0.2783 S.O2    1  UNL11       0.0724
     13 O          -4.4589    0.3258    0.4342 O.2     1  UNL11      -0.1500
     14 O          -3.8266    1.6305   -1.5838 O.2     1  UNL11      -0.1500
     15 N          -2.7603    2.2935    0.7044 N.pl3   1  UNL11      -0.2163
     16 C          -1.4066    2.6945    0.6038 C.ar    1  UNL11       0.0480
     17 C          -0.9791    3.6785   -0.2636 C.ar    1  UNL11      -0.0393
     18 C           0.3032    4.0969   -0.4065 C.ar    1  UNL11      -0.0600
     19 C           1.2833    3.5093    0.3660 C.ar    1  UNL11      -0.0616
     20 C           0.9109    2.5192    1.2504 C.ar    1  UNL11      -0.0600
     21 C          -0.3984    2.1144    1.3741 C.ar    1  UNL11      -0.0393
     22 C          -0.8058   -0.0345   -0.2084 C.ar    1  UNL11      -0.0229
     23 C           4.2632    0.4476   -0.1642 C.ar    1  UNL11       0.0382
     24 C           3.0393    0.6548   -0.7903 C.ar    1  UNL11      -0.0496
     25 C           2.7634    1.7920   -1.5377 C.ar    1  UNL11      -0.0610
     26 C           3.7244    2.7597   -1.6745 C.ar    1  UNL11      -0.0617
     27 C           4.9528    2.5886   -1.0670 C.ar    1  UNL11      -0.0610
     28 C           5.1976    1.4500   -0.3316 C.ar    1  UNL11      -0.0496
     29 H           4.0369   -2.5756    1.4494 H       1  UNL11       0.1731
     30 H           2.0270   -2.8898    0.1549 H       1  UNL11       0.1731
     31 H           0.5020   -2.7675   -1.5967 H       1  UNL11       0.0625
     32 H          -1.8013   -2.9906   -2.4532 H       1  UNL11       0.0618
     33 H          -3.4434   -1.3122   -1.8661 H       1  UNL11       0.0637
     34 H          -3.3617    2.8076    1.3988 H       1  UNL11       0.1737
     35 H          -1.7332    4.1523   -0.8846 H       1  UNL11       0.0636
     36 H           0.5705    4.8724   -1.1092 H       1  UNL11       0.0618
     37 H           2.2882    3.8707    0.2231 H       1  UNL11       0.0618
     38 H           1.7014    2.0767    1.8405 H       1  UNL11       0.0618
     39 H          -0.6504    1.3443    2.0728 H       1  UNL11       0.0636
     40 H          -0.5499    0.7973    0.4099 H       1  UNL11       0.0645
     41 H           2.2888   -0.1209   -0.6727 H       1  UNL11       0.0625
     42 H           1.7919    1.9339   -2.0212 H       1  UNL11       0.0618
     43 H           3.4809    3.6491   -2.2681 H       1  UNL11       0.0618
     44 H           5.6907    3.3583   -1.1870 H       1  UNL11       0.0618
     45 H           6.1772    1.3259    0.1545 H       1  UNL11       0.0625
@<TRIPOS>BOND
     1     1     2    2
     2     2     3   am
     3     2    23    1
     4     3     4    1
     5     3    29    1
     6     4     5   am
     7     4    30    1
     8     5     6    2
     9     5     7    1
    10     7     8   ar
    11     8     9   ar
    12     8    31    1
    13     9    10   ar
    14     9    32    1
    15    10    11   ar
    16    10    33    1
    17    11    12    1
    18    11    22   ar
    19    12    13    2
    20    12    14    2
    21    12    15    1
    22    15    16    1
    23    15    34    1
    24    16    17   ar
    25    17    18   ar
    26    17    35    1
    27    18    19   ar
    28    18    36    1
    29    19    20   ar
    30    19    37    1
    31    20    21   ar
    32    20    38    1
    33    21    16   ar
    34    21    39    1
    35    22     7   ar
    36    22    40    1
    37    23    24   ar
    38    24    25   ar
    39    24    41    1
    40    25    26   ar
    41    25    42    1
    42    26    27   ar
    43    26    43    1
    44    27    28   ar
    45    27    44    1
    46    28    23   ar
    47    28    45    1
@<TRIPOS>MOLECULE
*****
 45 47 0 0 0
SMALL
GASTEIGER

@<TRIPOS>ATOM
      1 O           3.3322    0.1639    1.9743 O.2     1  UNL11      -0.2687
      2 C           4.1620   -0.7563    1.6659 C.2     1  UNL11       0.2601
      3 N           3.6673   -1.7846    0.8351 N.am    1  UNL11      -0.2301
      4 N           2.3765   -1.8934    0.3238 N.am    1  UNL11      -0.2301
      5 C           1.5174   -0.8451    0.0212 C.2     1  UNL11       0.2602
      6 O           1.9217    0.3531    0.2205 O.2     1  UNL11      -0.2687
      7 C           0.1718   -0.9691   -0.5154 C.ar    1  UNL11       0.0400
      8 C          -0.2116   -2.0205   -1.3236 C.ar    1  UNL11      -0.0495
      9 C          -1.5022   -2.1668   -1.8220 C.ar    1  UNL11      -0.0592
     10 C          -2.4445   -1.1910   -1.4768 C.ar    1  UNL11      -0.0350
     11 C          -2.0899   -0.1310   -0.6719 C.ar    1  UNL11       0.1092
     12 S          -3.3361    1.0275   -0.2783 S.O2    1  UNL11       0.0724
     13 O          -2.9138    2.3907   -0.7517 O.2     1  UNL11      -0.1500
     14 O          -3.5084    1.0163    1.2313 O.2     1  UNL11      -0.1500
     15 N          -4.8356    0.6347   -0.9836 N.pl3   1  UNL11      -0.2163
     16 C          -4.8661   -0.0709   -2.2103 C.ar    1  UNL11       0.0480
     17 C          -4.8982   -1.4483   -2.2818 C.ar    1  UNL11      -0.0393
     18 C          -4.9212   -2.1751   -3.4267 C.ar    1  UNL11      -0.0600
     19 C          -4.9133   -1.5106   -4.6353 C.ar    1  UNL11      -0.0616
     20 C          -4.8814   -0.1322   -4.6218 C.ar    1  UNL11      -0.0600
     21 C          -4.8582    0.5796   -3.4444 C.ar    1  UNL11      -0.0393
     22 C          -0.8058   -0.0345   -0.2084 C.ar    1  UNL11      -0.0229
     23 C           5.5181   -0.7072    2.1579 C.ar    1  UNL11       0.0382
     24 C           6.4832   -1.6613    1.8560 C.ar    1  UNL11      -0.0496
     25 C           7.7844   -1.5881    2.3351 C.ar    1  UNL11      -0.0610
     26 C           8.1500   -0.5400    3.1392 C.ar    1  UNL11      -0.0617
     27 C           7.2180    0.4272    3.4610 C.ar    1  UNL11      -0.0610
     28 C           5.9347    0.3280    2.9708 C.ar    1  UNL11      -0.0496
     29 H           4.3767   -2.5421    0.5846 H       1  UNL11       0.1731
     30 H           2.0270   -2.8898    0.1549 H       1  UNL11       0.1731
     31 H           0.5020   -2.7675   -1.5967 H       1  UNL11       0.0625
     32 H          -1.8013   -2.9906   -2.4532 H       1  UNL11       0.0618
     33 H          -3.4434   -1.3122   -1.8661 H       1  UNL11       0.0637
     34 H          -5.7623    0.8908   -0.5551 H       1  UNL11       0.1737
     35 H          -4.9011   -1.9925   -1.3422 H       1  UNL11       0.0636
     36 H          -4.9426   -3.2550   -3.4112 H       1  UNL11       0.0618
     37 H          -4.9335   -2.1242   -5.5208 H       1  UNL11       0.0618
     38 H          -4.8742    0.3600   -5.5845 H       1  UNL11       0.0618
     39 H          -4.8358    1.6489   -3.4729 H       1  UNL11       0.0636
     40 H          -0.5499    0.7973    0.4099 H       1  UNL11       0.0645
     41 H           6.1780   -2.4852    1.2183 H       1  UNL11       0.0625
     42 H           8.5277   -2.3509    2.0834 H       1  UNL11       0.0618
     43 H           9.1840   -0.5041    3.5027 H       1  UNL11       0.0618
     44 H           7.5252    1.2389    4.0919 H       1  UNL11       0.0618
     45 H           5.2011    1.1073    3.2271 H       1  UNL11       0.0625
@<TRIPOS>BOND
     1     1     2    2
     2     2     3   am
     3     2    23    1
     4     3     4    1
     5     3    29    1
     6     4     5   am
     7     4    30    1
     8     5     6    2
     9     5     7    1
    10     7     8   ar
    11     8     9   ar
    12     8    31    1
    13     9    10   ar
    14     9    32    1
    15    10    11   ar
    16    10    33    1
    17    11    12    1
    18    11    22   ar
    19    12    13    2
    20    12    14    2
    21    12    15    1
    22    15    16    1
    23    15    34    1
    24    16    17   ar
    25    17    18   ar
    26    17    35    1
    27    18    19   ar
    28    18    36    1
    29    19    20   ar
    30    19    37    1
    31    20    21   ar
    32    20    38    1
    33    21    16   ar
    34    21    39    1
    35    22     7   ar
    36    22    40    1
    37    23    24   ar
    38    24    25   ar
    39    24    41    1
    40    25    26   ar
    41    25    42    1
    42    26    27   ar
    43    26    43    1
    44    27    28   ar
    45    27    44    1
    46    28    23   ar
    47    28    45    1
@<TRIPOS>MOLECULE
*****
 45 47 0 0 0
SMALL
GASTEIGER

@<TRIPOS>ATOM
      1 O           0.8503   -5.1479    0.0605 O.2     1  UNL11      -0.2687
      2 C           0.8543   -3.8822    0.2285 C.2     1  UNL11       0.2601
      3 N           2.1152   -3.2514    0.1606 N.am    1  UNL11      -0.2301
      4 N           2.3765   -1.8934    0.3238 N.am    1  UNL11      -0.2301
      5 C           1.5174   -0.8451    0.0212 C.2     1  UNL11       0.2602
      6 O           1.9217    0.3531    0.2205 O.2     1  UNL11      -0.2687
      7 C           0.1718   -0.9691   -0.5154 C.ar    1  UNL11       0.0400
      8 C          -0.2116   -2.0205   -1.3236 C.ar    1  UNL11      -0.0495
      9 C          -1.5022   -2.1668   -1.8220 C.ar    1  UNL11      -0.0592
     10 C          -2.4445   -1.1910   -1.4768 C.ar    1  UNL11      -0.0350
     11 C          -2.0899   -0.1310   -0.6719 C.ar    1  UNL11       0.1092
     12 S          -3.3361    1.0275   -0.2783 S.O2    1  UNL11       0.0724
     13 O          -4.3162    1.1077   -1.4157 O.2     1  UNL11      -0.1500
     14 O          -2.6584    2.3701   -0.0620 O.2     1  UNL11      -0.1500
     15 N          -4.1732    0.6229    1.1485 N.pl3   1  UNL11      -0.2163
     16 C          -3.5055   -0.0952    2.1693 C.ar    1  UNL11       0.0480
     17 C          -3.4958   -1.4734    2.2324 C.ar    1  UNL11      -0.0393
     18 C          -2.8801   -2.2116    3.1893 C.ar    1  UNL11      -0.0600
     19 C          -2.1986   -1.5590    4.1954 C.ar    1  UNL11      -0.0616
     20 C          -2.1765   -0.1804    4.1807 C.ar    1  UNL11      -0.0600
     21 C          -2.8107    0.5430    3.1970 C.ar    1  UNL11      -0.0393
     22 C          -0.8058   -0.0345   -0.2084 C.ar    1  UNL11      -0.0229
     23 C          -0.3820   -3.1768    0.4686 C.ar    1  UNL11       0.0382
     24 C          -0.4626   -1.8003    0.6469 C.ar    1  UNL11      -0.0496
     25 C          -1.6654   -1.1430    0.8687 C.ar    1  UNL11      -0.0610
     26 C          -2.8301   -1.8640    0.9169 C.ar    1  UNL11      -0.0617
     27 C          -2.7894   -3.2337    0.7445 C.ar    1  UNL11      -0.0610
     28 C          -1.5813   -3.8582    0.5260 C.ar    1  UNL11      -0.0496
     29 H           2.9364   -3.9055   -0.0329 H       1  UNL11       0.1731
     30 H           3.3393   -1.6508    0.7212 H       1  UNL11       0.1731
     31 H           0.5020   -2.7675   -1.5967 H       1  UNL11       0.0625
     32 H          -1.8013   -2.9906   -2.4532 H       1  UNL11       0.0618
     33 H          -3.4434   -1.3122   -1.8661 H       1  UNL11       0.0637
     34 H          -5.1795    0.8782    1.3221 H       1  UNL11       0.1737
     35 H          -4.0294   -2.0081    1.4525 H       1  UNL11       0.0636
     36 H          -2.9147   -3.2912    3.1809 H       1  UNL11       0.0618
     37 H          -1.7225   -2.1815    4.9348 H       1  UNL11       0.0618
     38 H          -1.6360    0.3023    4.9831 H       1  UNL11       0.0618
     39 H          -2.7702    1.6120    3.2170 H       1  UNL11       0.0636
     40 H          -0.5499    0.7973    0.4099 H       1  UNL11       0.0645
     41 H           0.4685   -1.2435    0.6062 H       1  UNL11       0.0625
     42 H          -1.7045   -0.0579    1.0055 H       1  UNL11       0.0618
     43 H          -3.7668   -1.3210    1.0912 H       1  UNL11       0.0618
     44 H          -3.7126   -3.7788    0.7861 H       1  UNL11       0.0618
     45 H          -1.5599   -4.9492    0.3828 H       1  UNL11       0.0625
@<TRIPOS>BOND
     1     1     2    2
     2     2     3   am
     3     2    23    1
     4     3     4    1
     5     3    29    1
     6     4     5   am
     7     4    30    1
     8     5     6    2
     9     5     7    1
    10     7     8   ar
    11     8     9   ar
    12     8    31    1
    13     9    10   ar
    14     9    32    1
    15    10    11   ar
    16    10    33    1
    17    11    12    1
    18    11    22   ar
    19    12    13    2
    20    12    14    2
    21    12    15    1
    22    15    16    1
    23    15    34    1
    24    16    17   ar
    25    17    18   ar
    26    17    35    1
    27    18    19   ar
    28    18    36    1
    29    19    20   ar
    30    19    37    1
    31    20    21   ar
    32    20    38    1
    33    21    16   ar
    34    21    39    1
    35    22     7   ar
    36    22    40    1
    37    23    24   ar
    38    24    25   ar
    39    24    41    1
    40    25    26   ar
    41    25    42    1
    42    26    27   ar
    43    26    43    1
    44    27    28   ar
    45    27    44    1
    46    28    23   ar
    47    28    45    1
@<TRIPOS>MOLECULE
*****
 45 47 0 0 0
SMALL
GASTEIGER

@<TRIPOS>ATOM
      1 O           0.8503   -5.1479    0.0605 O.2     1  UNL11      -0.2687
      2 C           0.8543   -3.8822    0.2285 C.2     1  UNL11       0.2601
      3 N           2.1152   -3.2514    0.1606 N.am    1  UNL11      -0.2301
      4 N           2.3765   -1.8934    0.3238 N.am    1  UNL11      -0.2301
      5 C           1.5174   -0.8451    0.0212 C.2     1  UNL11       0.2602
      6 O           1.9217    0.3531    0.2205 O.2     1  UNL11      -0.2687
      7 C           0.1718   -0.9691   -0.5154 C.ar    1  UNL11       0.0400
      8 C          -0.2116   -2.0205   -1.3236 C.ar    1  UNL11      -0.0495
      9 C          -1.5022   -2.1668   -1.8220 C.ar    1  UNL11      -0.0592
     10 C          -2.4445   -1.1910   -1.4768 C.ar    1  UNL11      -0.0350
     11 C          -2.0899   -0.1310   -0.6719 C.ar    1  UNL11       0.1092
     12 S          -3.3361    1.0275   -0.2783 S.O2    1  UNL11       0.0724
     13 O          -4.4589    0.3258    0.4342 O.2     1  UNL11      -0.1500
     14 O          -3.8266    1.6305   -1.5838 O.2     1  UNL11      -0.1500
     15 N          -2.7603    2.2935    0.7044 N.pl3   1  UNL11      -0.2163
     16 C          -1.4015    2.3067    1.1004 C.ar    1  UNL11       0.0480
     17 C          -0.9530    1.7081    2.2597 C.ar    1  UNL11      -0.0393
     18 C           0.3329    1.6958    2.6908 C.ar    1  UNL11      -0.0600
     19 C           1.2949    2.3248    1.9283 C.ar    1  UNL11      -0.0616
     20 C           0.9011    2.9399    0.7588 C.ar    1  UNL11      -0.0600
     21 C          -0.4115    2.9368    0.3460 C.ar    1  UNL11      -0.0393
     22 C          -0.8058   -0.0345   -0.2084 C.ar    1  UNL11      -0.0229
     23 C          -0.3820   -3.1768    0.4686 C.ar    1  UNL11       0.0382
     24 C          -1.6148   -3.5920   -0.0220 C.ar    1  UNL11      -0.0496
     25 C          -2.7924   -2.9006    0.2293 C.ar    1  UNL11      -0.0610
     26 C          -2.7571   -1.7608    0.9898 C.ar    1  UNL11      -0.0617
     27 C          -1.5503   -1.3172    1.4942 C.ar    1  UNL11      -0.0610
     28 C          -0.3984   -2.0242    1.2283 C.ar    1  UNL11      -0.0496
     29 H           2.9364   -3.9055   -0.0329 H       1  UNL11       0.1731
     30 H           3.3393   -1.6508    0.7212 H       1  UNL11       0.1731
     31 H           0.5020   -2.7675   -1.5967 H       1  UNL11       0.0625
     32 H          -1.8013   -2.9906   -2.4532 H       1  UNL11       0.0618
     33 H          -3.4434   -1.3122   -1.8661 H       1  UNL11       0.0637
     34 H          -3.3660    3.0845    1.0445 H       1  UNL11       0.1737
     35 H          -1.6939    1.2100    2.8778 H       1  UNL11       0.0636
     36 H           0.6160    1.2097    3.6130 H       1  UNL11       0.0618
     37 H           2.3038    2.2912    2.3049 H       1  UNL11       0.0618
     38 H           1.6772    3.4259    0.1839 H       1  UNL11       0.0618
     39 H          -0.6797    3.4229   -0.5687 H       1  UNL11       0.0636
     40 H          -0.5499    0.7973    0.4099 H       1  UNL11       0.0645
     41 H          -1.6261   -4.4963   -0.6227 H       1  UNL11       0.0625
     42 H          -3.7519   -3.2470   -0.1670 H       1  UNL11       0.0618
     43 H          -3.7009   -1.2343    1.1755 H       1  UNL11       0.0618
     44 H          -1.5451   -0.4228    2.0868 H       1  UNL11       0.0618
     45 H           0.5574   -1.6666    1.6404 H       1  UNL11       0.0625
@<TRIPOS>BOND
     1     1     2    2
     2     2     3   am
     3     2    23    1
     4     3     4    1
     5     3    29    1
     6     4     5   am
     7     4    30    1
     8     5     6    2
     9     5     7    1
    10     7     8   ar
    11     8     9   ar
    12     8    31    1
    13     9    10   ar
    14     9    32    1
    15    10    11   ar
    16    10    33    1
    17    11    12    1
    18    11    22   ar
    19    12    13    2
    20    12    14    2
    21    12    15    1
    22    15    16    1
    23    15    34    1
    24    16    17   ar
    25    17    18   ar
    26    17    35    1
    27    18    19   ar
    28    18    36    1
    29    19    20   ar
    30    19    37    1
    31    20    21   ar
    32    20    38    1
    33    21    16   ar
    34    21    39    1
    35    22     7   ar
    36    22    40    1
    37    23    24   ar
    38    24    25   ar
    39    24    41    1
    40    25    26   ar
    41    25    42    1
    42    26    27   ar
    43    26    43    1
    44    27    28   ar
    45    27    44    1
    46    28    23   ar
    47    28    45    1
@<TRIPOS>MOLECULE
*****
 45 47 0 0 0
SMALL
GASTEIGER

@<TRIPOS>ATOM
      1 O           3.2850    2.5765    1.4580 O.2     1  UNL11      -0.2687
      2 C           3.9326    1.4990    1.6813 C.2     1  UNL11       0.2601
      3 N           3.2620    0.2964    1.3703 N.am    1  UNL11      -0.2301
      4 N           1.9768    0.1707    0.8493 N.am    1  UNL11      -0.2301
      5 C           1.5174   -0.8451    0.0212 C.2     1  UNL11       0.2602
      6 O           2.3315   -1.7739   -0.3156 O.2     1  UNL11      -0.2687
      7 C           0.1718   -0.9691   -0.5154 C.ar    1  UNL11       0.0400
      8 C          -0.2116   -2.0205   -1.3236 C.ar    1  UNL11      -0.0495
      9 C          -1.5022   -2.1668   -1.8220 C.ar    1  UNL11      -0.0592
     10 C          -2.4445   -1.1910   -1.4768 C.ar    1  UNL11      -0.0350
     11 C          -2.0899   -0.1310   -0.6719 C.ar    1  UNL11       0.1092
     12 S          -3.3361    1.0275   -0.2783 S.O2    1  UNL11       0.0724
     13 O          -4.3162    1.1077   -1.4157 O.2     1  UNL11      -0.1500
     14 O          -2.6584    2.3701   -0.0620 O.2     1  UNL11      -0.1500
     15 N          -4.1732    0.6229    1.1485 N.pl3   1  UNL11      -0.2163
     16 C          -4.1633    1.5216    2.2419 C.ar    1  UNL11       0.0480
     17 C          -3.2095    1.4795    3.2378 C.ar    1  UNL11      -0.0393
     18 C          -3.1557    2.3090    4.3096 C.ar    1  UNL11      -0.0600
     19 C          -4.1202    3.2861    4.4421 C.ar    1  UNL11      -0.0616
     20 C          -5.0984    3.3728    3.4741 C.ar    1  UNL11      -0.0600
     21 C          -5.1284    2.5170    2.3970 C.ar    1  UNL11      -0.0393
     22 C          -0.8058   -0.0345   -0.2084 C.ar    1  UNL11      -0.0229
     23 C           5.2713    1.5534    2.2185 C.ar    1  UNL11       0.0382
     24 C           5.7275    2.5690    3.0511 C.ar    1  UNL11      -0.0496
     25 C           7.0182    2.5954    3.5623 C.ar    1  UNL11      -0.0610
     26 C           7.8914    1.5879    3.2439 C.ar    1  UNL11      -0.0617
     27 C           7.4739    0.5620    2.4188 C.ar    1  UNL11      -0.0610
     28 C           6.1873    0.5626    1.9270 C.ar    1  UNL11      -0.0496
     29 H           3.8210   -0.5932    1.5596 H       1  UNL11       0.1731
     30 H           1.2881    0.9419    1.1223 H       1  UNL11       0.1731
     31 H           0.5020   -2.7675   -1.5967 H       1  UNL11       0.0625
     32 H          -1.8013   -2.9906   -2.4532 H       1  UNL11       0.0618
     33 H          -3.4434   -1.3122   -1.8661 H       1  UNL11       0.0637
     34 H          -4.7088   -0.2750    1.2713 H       1  UNL11       0.1737
     35 H          -2.4424    0.7155    3.1561 H       1  UNL11       0.0636
     36 H          -2.3809    2.2188    5.0567 H       1  UNL11       0.0618
     37 H          -4.0412    3.9247    5.3062 H       1  UNL11       0.0618
     38 H          -5.8412    4.1473    3.6064 H       1  UNL11       0.0618
     39 H          -5.9018    2.6157    1.6643 H       1  UNL11       0.0636
     40 H          -0.5499    0.7973    0.4099 H       1  UNL11       0.0645
     41 H           5.0242    3.3596    3.2938 H       1  UNL11       0.0625
     42 H           7.3551    3.4052    4.2169 H       1  UNL11       0.0618
     43 H           8.9042    1.6308    3.6620 H       1  UNL11       0.0618
     44 H           8.1734   -0.2164    2.1822 H       1  UNL11       0.0618
     45 H           5.8618   -0.2629    1.2759 H       1  UNL11       0.0625
@<TRIPOS>BOND
     1     1     2    2
     2     2     3   am
     3     2    23    1
     4     3     4    1
     5     3    29    1
     6     4     5   am
     7     4    30    1
     8     5     6    2
     9     5     7    1
    10     7     8   ar
    11     8     9   ar
    12     8    31    1
    13     9    10   ar
    14     9    32    1
    15    10    11   ar
    16    10    33    1
    17    11    12    1
    18    11    22   ar
    19    12    13    2
    20    12    14    2
    21    12    15    1
    22    15    16    1
    23    15    34    1
    24    16    17   ar
    25    17    18   ar
    26    17    35    1
    27    18    19   ar
    28    18    36    1
    29    19    20   ar
    30    19    37    1
    31    20    21   ar
    32    20    38    1
    33    21    16   ar
    34    21    39    1
    35    22     7   ar
    36    22    40    1
    37    23    24   ar
    38    24    25   ar
    39    24    41    1
    40    25    26   ar
    41    25    42    1
    42    26    27   ar
    43    26    43    1
    44    27    28   ar
    45    27    44    1
    46    28    23   ar
    47    28    45    1
@<TRIPOS>MOLECULE
*****
 45 47 0 0 0
SMALL
GASTEIGER

@<TRIPOS>ATOM
      1 O           3.6692    2.6443   -0.2784 O.2     1  UNL11      -0.2687
      2 C           2.4083    2.7966   -0.1468 C.2     1  UNL11       0.2601
      3 N           1.6701    1.6303    0.1486 N.am    1  UNL11      -0.2301
      4 N           2.1764    0.3430    0.3091 N.am    1  UNL11      -0.2301
      5 C           1.5174   -0.8451    0.0212 C.2     1  UNL11       0.2602
      6 O           2.1257   -1.9498    0.2411 O.2     1  UNL11      -0.2687
      7 C           0.1718   -0.9691   -0.5154 C.ar    1  UNL11       0.0400
      8 C          -0.2116   -2.0205   -1.3236 C.ar    1  UNL11      -0.0495
      9 C          -1.5022   -2.1668   -1.8220 C.ar    1  UNL11      -0.0592
     10 C          -2.4445   -1.1910   -1.4768 C.ar    1  UNL11      -0.0350
     11 C          -2.0899   -0.1310   -0.6719 C.ar    1  UNL11       0.1092
     12 S          -3.3361    1.0275   -0.2783 S.O2    1  UNL11       0.0724
     13 O          -4.6164    0.6296   -0.9588 O.2     1  UNL11      -0.1500
     14 O          -2.8684    2.3858   -0.7732 O.2     1  UNL11      -0.1500
     15 N          -3.6111    1.1426    1.3984 N.pl3   1  UNL11      -0.2163
     16 C          -4.6029    2.0283    1.8836 C.ar    1  UNL11       0.0480
     17 C          -5.9158    1.6505    2.0756 C.ar    1  UNL11      -0.0393
     18 C          -6.9070    2.4571    2.5301 C.ar    1  UNL11      -0.0600
     19 C          -6.6084    3.7688    2.8347 C.ar    1  UNL11      -0.0616
     20 C          -5.3102    4.1997    2.6609 C.ar    1  UNL11      -0.0600
     21 C          -4.3245    3.3588    2.1976 C.ar    1  UNL11      -0.0393
     22 C          -0.8058   -0.0345   -0.2084 C.ar    1  UNL11      -0.0229
     23 C           1.8143    4.1035   -0.2970 C.ar    1  UNL11       0.0382
     24 C           0.6669    4.5110    0.3740 C.ar    1  UNL11      -0.0496
     25 C           0.1184    5.7772    0.2192 C.ar    1  UNL11      -0.0610
     26 C           0.7190    6.6746   -0.6251 C.ar    1  UNL11      -0.0617
     27 C           1.8605    6.3053   -1.3092 C.ar    1  UNL11      -0.0610
     28 C           2.3817    5.0423   -1.1353 C.ar    1  UNL11      -0.0496
     29 H           0.6187    1.7784    0.2592 H       1  UNL11       0.1731
     30 H           3.1719    0.2808    0.6947 H       1  UNL11       0.1731
     31 H           0.5020   -2.7675   -1.5967 H       1  UNL11       0.0625
     32 H          -1.8013   -2.9906   -2.4532 H       1  UNL11       0.0618
     33 H          -3.4434   -1.3122   -1.8661 H       1  UNL11       0.0637
     34 H          -3.0766    0.5843    2.1130 H       1  UNL11       0.1737
     35 H          -6.1746    0.6230    1.8385 H       1  UNL11       0.0636
     36 H          -7.9176    2.0967    2.6546 H       1  UNL11       0.0618
     37 H          -7.4230    4.3757    3.1937 H       1  UNL11       0.0618
     38 H          -5.1075    5.2330    2.9064 H       1  UNL11       0.0618
     39 H          -3.3275    3.7280    2.0772 H       1  UNL11       0.0636
     40 H          -0.5499    0.7973    0.4099 H       1  UNL11       0.0645
     41 H           0.2029    3.7888    1.0387 H       1  UNL11       0.0625
     42 H          -0.7856    6.0762    0.7587 H       1  UNL11       0.0618
     43 H           0.2675    7.6686   -0.7282 H       1  UNL11       0.0618
     44 H           2.3145    7.0231   -1.9650 H       1  UNL11       0.0618
     45 H           3.2956    4.7597   -1.6796 H       1  UNL11       0.0625
@<TRIPOS>BOND
     1     1     2    2
     2     2     3   am
     3     2    23    1
     4     3     4    1
     5     3    29    1
     6     4     5   am
     7     4    30    1
     8     5     6    2
     9     5     7    1
    10     7     8   ar
    11     8     9   ar
    12     8    31    1
    13     9    10   ar
    14     9    32    1
    15    10    11   ar
    16    10    33    1
    17    11    12    1
    18    11    22   ar
    19    12    13    2
    20    12    14    2
    21    12    15    1
    22    15    16    1
    23    15    34    1
    24    16    17   ar
    25    17    18   ar
    26    17    35    1
    27    18    19   ar
    28    18    36    1
    29    19    20   ar
    30    19    37    1
    31    20    21   ar
    32    20    38    1
    33    21    16   ar
    34    21    39    1
    35    22     7   ar
    36    22    40    1
    37    23    24   ar
    38    24    25   ar
    39    24    41    1
    40    25    26   ar
    41    25    42    1
    42    26    27   ar
    43    26    43    1
    44    27    28   ar
    45    27    44    1
    46    28    23   ar
    47    28    45    1
@<TRIPOS>MOLECULE
*****
 45 47 0 0 0
SMALL
GASTEIGER

@<TRIPOS>ATOM
      1 O           2.1058   -3.3257   -3.5088 O.2     1  UNL11      -0.2687
      2 C           1.7971   -2.8046   -2.3848 C.2     1  UNL11       0.2601
      3 N           2.7774   -1.9784   -1.7940 N.am    1  UNL11      -0.2301
      4 N           2.6812   -1.3145   -0.5738 N.am    1  UNL11      -0.2301
      5 C           1.5174   -0.8451    0.0212 C.2     1  UNL11       0.2602
      6 O           1.6073   -0.2406    1.1461 O.2     1  UNL11      -0.2687
      7 C           0.1718   -0.9691   -0.5154 C.ar    1  UNL11       0.0400
      8 C          -0.2116   -2.0205   -1.3236 C.ar    1  UNL11      -0.0495
      9 C          -1.5022   -2.1668   -1.8220 C.ar    1  UNL11      -0.0592
     10 C          -2.4445   -1.1910   -1.4768 C.ar    1  UNL11      -0.0350
     11 C          -2.0899   -0.1310   -0.6719 C.ar    1  UNL11       0.1092
     12 S          -3.3361    1.0275   -0.2783 S.O2    1  UNL11       0.0724
     13 O          -2.7596    2.0933    0.6119 O.2     1  UNL11      -0.1500
     14 O          -4.4463    0.2770    0.4377 O.2     1  UNL11      -0.1500
     15 N          -4.0028    1.7614   -1.6629 N.pl3   1  UNL11      -0.2163
     16 C          -3.9172    3.1657   -1.8179 C.ar    1  UNL11       0.0480
     17 C          -4.8865    4.0311   -1.3544 C.ar    1  UNL11      -0.0393
     18 C          -4.8598    5.3813   -1.4812 C.ar    1  UNL11      -0.0600
     19 C          -3.7874    5.9670   -2.1211 C.ar    1  UNL11      -0.0616
     20 C          -2.7892    5.1477   -2.6045 C.ar    1  UNL11      -0.0600
     21 C          -2.8429    3.7802   -2.4618 C.ar    1  UNL11      -0.0393
     22 C          -0.8058   -0.0345   -0.2084 C.ar    1  UNL11      -0.0229
     23 C           0.5088   -3.0693   -1.7900 C.ar    1  UNL11       0.0382
     24 C          -0.6397   -3.3387   -2.5257 C.ar    1  UNL11      -0.0496
     25 C          -1.8669   -3.5985   -1.9303 C.ar    1  UNL11      -0.0610
     26 C          -1.9688   -3.5932   -0.5634 C.ar    1  UNL11      -0.0617
     27 C          -0.8491   -3.3292    0.2008 C.ar    1  UNL11      -0.0610
     28 C           0.3550   -3.0752   -0.4181 C.ar    1  UNL11      -0.0496
     29 H           3.6767   -1.8714   -2.3593 H       1  UNL11       0.1731
     30 H           3.6043   -1.1571   -0.0573 H       1  UNL11       0.1731
     31 H           0.5020   -2.7675   -1.5967 H       1  UNL11       0.0625
     32 H          -1.8013   -2.9906   -2.4532 H       1  UNL11       0.0618
     33 H          -3.4434   -1.3122   -1.8661 H       1  UNL11       0.0637
     34 H          -4.4866    1.2237   -2.4277 H       1  UNL11       0.1737
     35 H          -5.7421    3.5917   -0.8506 H       1  UNL11       0.0636
     36 H          -5.6561    6.0017   -1.0967 H       1  UNL11       0.0618
     37 H          -3.8037    7.0414   -2.1998 H       1  UNL11       0.0618
     38 H          -1.9630    5.6358   -3.1026 H       1  UNL11       0.0618
     39 H          -2.0486    3.1764   -2.8480 H       1  UNL11       0.0636
     40 H          -0.5499    0.7973    0.4099 H       1  UNL11       0.0645
     41 H          -0.5426   -3.3390   -3.6071 H       1  UNL11       0.0625
     42 H          -2.7578   -3.8089   -2.5301 H       1  UNL11       0.0618
     43 H          -2.9485   -3.8034   -0.1177 H       1  UNL11       0.0618
     44 H          -0.9511   -3.3299    1.2689 H       1  UNL11       0.0618
     45 H           1.2431   -2.8727    0.1995 H       1  UNL11       0.0625
@<TRIPOS>BOND
     1     1     2    2
     2     2     3   am
     3     2    23    1
     4     3     4    1
     5     3    29    1
     6     4     5   am
     7     4    30    1
     8     5     6    2
     9     5     7    1
    10     7     8   ar
    11     8     9   ar
    12     8    31    1
    13     9    10   ar
    14     9    32    1
    15    10    11   ar
    16    10    33    1
    17    11    12    1
    18    11    22   ar
    19    12    13    2
    20    12    14    2
    21    12    15    1
    22    15    16    1
    23    15    34    1
    24    16    17   ar
    25    17    18   ar
    26    17    35    1
    27    18    19   ar
    28    18    36    1
    29    19    20   ar
    30    19    37    1
    31    20    21   ar
    32    20    38    1
    33    21    16   ar
    34    21    39    1
    35    22     7   ar
    36    22    40    1
    37    23    24   ar
    38    24    25   ar
    39    24    41    1
    40    25    26   ar
    41    25    42    1
    42    26    27   ar
    43    26    43    1
    44    27    28   ar
    45    27    44    1
    46    28    23   ar
    47    28    45    1
@<TRIPOS>MOLECULE
*****
 45 47 0 0 0
SMALL
GASTEIGER

@<TRIPOS>ATOM
      1 O           4.7544    0.4787    3.2545 O.2     1  UNL11      -0.2687
      2 C           3.5076    0.4655    2.9795 C.2     1  UNL11       0.2601
      3 N           3.1499   -0.1275    1.7495 N.am    1  UNL11      -0.2301
      4 N           1.8652   -0.2484    1.2260 N.am    1  UNL11      -0.2301
      5 C           1.5174   -0.8451    0.0212 C.2     1  UNL11       0.2602
      6 O           2.4469   -1.3434   -0.7045 O.2     1  UNL11      -0.2687
      7 C           0.1718   -0.9691   -0.5154 C.ar    1  UNL11       0.0400
      8 C          -0.2116   -2.0205   -1.3236 C.ar    1  UNL11      -0.0495
      9 C          -1.5022   -2.1668   -1.8220 C.ar    1  UNL11      -0.0592
     10 C          -2.4445   -1.1910   -1.4768 C.ar    1  UNL11      -0.0350
     11 C          -2.0899   -0.1310   -0.6719 C.ar    1  UNL11       0.1092
     12 S          -3.3361    1.0275   -0.2783 S.O2    1  UNL11       0.0724
     13 O          -3.8521    1.6510   -1.5454 O.2     1  UNL11      -0.1500
     14 O          -2.7110    2.0820    0.6194 O.2     1  UNL11      -0.1500
     15 N          -4.6376    0.3220    0.5634 N.pl3   1  UNL11      -0.2163
     16 C          -5.7357   -0.2007   -0.1610 C.ar    1  UNL11       0.0480
     17 C          -6.8453    0.5519   -0.4863 C.ar    1  UNL11      -0.0393
     18 C          -7.9264    0.1021   -1.1706 C.ar    1  UNL11      -0.0600
     19 C          -7.9473   -1.2117   -1.5901 C.ar    1  UNL11      -0.0616
     20 C          -6.8629   -2.0093   -1.2914 C.ar    1  UNL11      -0.0600
     21 C          -5.7791   -1.5259   -0.5948 C.ar    1  UNL11      -0.0393
     22 C          -0.8058   -0.0345   -0.2084 C.ar    1  UNL11      -0.0229
     23 C           2.5535    1.0325    3.9024 C.ar    1  UNL11       0.0382
     24 C           1.1808    1.0441    3.6826 C.ar    1  UNL11      -0.0496
     25 C           0.2816    1.5887    4.5897 C.ar    1  UNL11      -0.0610
     26 C           0.7481    2.1412    5.7541 C.ar    1  UNL11      -0.0617
     27 C           2.1058    2.1483    6.0070 C.ar    1  UNL11      -0.0610
     28 C           2.9738    1.6005    5.0884 C.ar    1  UNL11      -0.0496
     29 H           3.9671   -0.5111    1.1796 H       1  UNL11       0.1731
     30 H           1.0803    0.1659    1.8227 H       1  UNL11       0.1731
     31 H           0.5020   -2.7675   -1.5967 H       1  UNL11       0.0625
     32 H          -1.8013   -2.9906   -2.4532 H       1  UNL11       0.0618
     33 H          -3.4434   -1.3122   -1.8661 H       1  UNL11       0.0637
     34 H          -4.6781    0.2498    1.6127 H       1  UNL11       0.1737
     35 H          -6.8523    1.5883   -0.1627 H       1  UNL11       0.0636
     36 H          -8.7657    0.7459   -1.3896 H       1  UNL11       0.0618
     37 H          -8.8232   -1.5291   -2.1313 H       1  UNL11       0.0618
     38 H          -6.9093   -3.0345   -1.6317 H       1  UNL11       0.0618
     39 H          -4.9545   -2.1738   -0.3830 H       1  UNL11       0.0636
     40 H          -0.5499    0.7973    0.4099 H       1  UNL11       0.0645
     41 H           0.8271    0.6030    2.7558 H       1  UNL11       0.0625
     42 H          -0.7955    1.5858    4.3955 H       1  UNL11       0.0618
     43 H           0.0174    2.5627    6.4549 H       1  UNL11       0.0618
     44 H           2.4496    2.5859    6.9244 H       1  UNL11       0.0618
     45 H           4.0534    1.6046    5.3022 H       1  UNL11       0.0625
@<TRIPOS>BOND
     1     1     2    2
     2     2     3   am
     3     2    23    1
     4     3     4    1
     5     3    29    1
     6     4     5   am
     7     4    30    1
     8     5     6    2
     9     5     7    1
    10     7     8   ar
    11     8     9   ar
    12     8    31    1
    13     9    10   ar
    14     9    32    1
    15    10    11   ar
    16    10    33    1
    17    11    12    1
    18    11    22   ar
    19    12    13    2
    20    12    14    2
    21    12    15    1
    22    15    16    1
    23    15    34    1
    24    16    17   ar
    25    17    18   ar
    26    17    35    1
    27    18    19   ar
    28    18    36    1
    29    19    20   ar
    30    19    37    1
    31    20    21   ar
    32    20    38    1
    33    21    16   ar
    34    21    39    1
    35    22     7   ar
    36    22    40    1
    37    23    24   ar
    38    24    25   ar
    39    24    41    1
    40    25    26   ar
    41    25    42    1
    42    26    27   ar
    43    26    43    1
    44    27    28   ar
    45    27    44    1
    46    28    23   ar
    47    28    45    1
@<TRIPOS>MOLECULE
*****
 45 47 0 0 0
SMALL
GASTEIGER

@<TRIPOS>ATOM
      1 O           1.6754    3.9111    0.2168 O.2     1  UNL11      -0.2687
      2 C           2.3401    2.8412    0.4264 C.2     1  UNL11       0.2601
      3 N           1.6701    1.6303    0.1486 N.am    1  UNL11      -0.2301
      4 N           2.1764    0.3430    0.3091 N.am    1  UNL11      -0.2301
      5 C           1.5174   -0.8451    0.0212 C.2     1  UNL11       0.2602
      6 O           2.1257   -1.9498    0.2411 O.2     1  UNL11      -0.2687
      7 C           0.1718   -0.9691   -0.5154 C.ar    1  UNL11       0.0400
      8 C          -0.2116   -2.0205   -1.3236 C.ar    1  UNL11      -0.0495
      9 C          -1.5022   -2.1668   -1.8220 C.ar    1  UNL11      -0.0592
     10 C          -2.4445   -1.1910   -1.4768 C.ar    1  UNL11      -0.0350
     11 C          -2.0899   -0.1310   -0.6719 C.ar    1  UNL11       0.1092
     12 S          -3.3361    1.0275   -0.2783 S.O2    1  UNL11       0.0724
     13 O          -2.9138    2.3907   -0.7517 O.2     1  UNL11      -0.1500
     14 O          -3.5084    1.0163    1.2313 O.2     1  UNL11      -0.1500
     15 N          -4.8356    0.6347   -0.9836 N.pl3   1  UNL11      -0.2163
     16 C          -4.9380    0.5284   -2.3914 C.ar    1  UNL11       0.0480
     17 C          -5.2631    1.5966   -3.2017 C.ar    1  UNL11      -0.0393
     18 C          -5.3818    1.5506   -4.5521 C.ar    1  UNL11      -0.0600
     19 C          -5.1649    0.3509   -5.1972 C.ar    1  UNL11      -0.0616
     20 C          -4.8369   -0.7500   -4.4346 C.ar    1  UNL11      -0.0600
     21 C          -4.7237   -0.6741   -3.0653 C.ar    1  UNL11      -0.0393
     22 C          -0.8058   -0.0345   -0.2084 C.ar    1  UNL11      -0.0229
     23 C           3.6959    2.9119    0.9166 C.ar    1  UNL11       0.0382
     24 C           4.6732    1.9684    0.6207 C.ar    1  UNL11      -0.0496
     25 C           5.9738    2.0623    1.0979 C.ar    1  UNL11      -0.0610
     26 C           6.3263    3.1211    1.8938 C.ar    1  UNL11      -0.0617
     27 C           5.3820    4.0783    2.2095 C.ar    1  UNL11      -0.0610
     28 C           4.0996    3.9585    1.7213 C.ar    1  UNL11      -0.0496
     29 H           0.6732    1.7405   -0.2171 H       1  UNL11       0.1731
     30 H           3.1719    0.2808    0.6947 H       1  UNL11       0.1731
     31 H           0.5020   -2.7675   -1.5967 H       1  UNL11       0.0625
     32 H          -1.8013   -2.9906   -2.4532 H       1  UNL11       0.0618
     33 H          -3.4434   -1.3122   -1.8661 H       1  UNL11       0.0637
     34 H          -5.7114    0.4633   -0.4254 H       1  UNL11       0.1737
     35 H          -5.4421    2.5504   -2.7148 H       1  UNL11       0.0636
     36 H          -5.6434    2.4266   -5.1273 H       1  UNL11       0.0618
     37 H          -5.2679    0.3571   -6.2697 H       1  UNL11       0.0618
     38 H          -4.6747   -1.6761   -4.9685 H       1  UNL11       0.0618
     39 H          -4.4653   -1.5491   -2.5065 H       1  UNL11       0.0636
     40 H          -0.5499    0.7973    0.4099 H       1  UNL11       0.0645
     41 H           4.3784    1.1358   -0.0105 H       1  UNL11       0.0625
     42 H           6.7269    1.3076    0.8510 H       1  UNL11       0.0618
     43 H           7.3601    3.1734    2.2560 H       1  UNL11       0.0618
     44 H           5.6790    4.8986    2.8340 H       1  UNL11       0.0618
     45 H           3.3560    4.7300    1.9727 H       1  UNL11       0.0625
@<TRIPOS>BOND
     1     1     2    2
     2     2     3   am
     3     2    23    1
     4     3     4    1
     5     3    29    1
     6     4     5   am
     7     4    30    1
     8     5     6    2
     9     5     7    1
    10     7     8   ar
    11     8     9   ar
    12     8    31    1
    13     9    10   ar
    14     9    32    1
    15    10    11   ar
    16    10    33    1
    17    11    12    1
    18    11    22   ar
    19    12    13    2
    20    12    14    2
    21    12    15    1
    22    15    16    1
    23    15    34    1
    24    16    17   ar
    25    17    18   ar
    26    17    35    1
    27    18    19   ar
    28    18    36    1
    29    19    20   ar
    30    19    37    1
    31    20    21   ar
    32    20    38    1
    33    21    16   ar
    34    21    39    1
    35    22     7   ar
    36    22    40    1
    37    23    24   ar
    38    24    25   ar
    39    24    41    1
    40    25    26   ar
    41    25    42    1
    42    26    27   ar
    43    26    43    1
    44    27    28   ar
    45    27    44    1
    46    28    23   ar
    47    28    45    1
@<TRIPOS>MOLECULE
*****
 45 47 0 0 0
SMALL
GASTEIGER

@<TRIPOS>ATOM
      1 O          -0.5873    0.9776    0.6329 O.2     1  UNL11      -0.2687
      2 C          -0.2424    0.9497    1.8620 C.2     1  UNL11       0.2601
      3 N           0.9937    0.3298    2.1454 N.am    1  UNL11      -0.2301
      4 N           1.8652   -0.2484    1.2260 N.am    1  UNL11      -0.2301
      5 C           1.5174   -0.8451    0.0212 C.2     1  UNL11       0.2602
      6 O           2.4469   -1.3434   -0.7045 O.2     1  UNL11      -0.2687
      7 C           0.1718   -0.9691   -0.5154 C.ar    1  UNL11       0.0400
      8 C          -0.2116   -2.0205   -1.3236 C.ar    1  UNL11      -0.0495
      9 C          -1.5022   -2.1668   -1.8220 C.ar    1  UNL11      -0.0592
     10 C          -2.4445   -1.1910   -1.4768 C.ar    1  UNL11      -0.0350
     11 C          -2.0899   -0.1310   -0.6719 C.ar    1  UNL11       0.1092
     12 S          -3.3361    1.0275   -0.2783 S.O2    1  UNL11       0.0724
     13 O          -3.0738    1.5929    1.0899 O.2     1  UNL11      -0.1500
     14 O          -4.6661    0.2934   -0.3065 O.2     1  UNL11      -0.1500
     15 N          -3.4145    2.3053   -1.4014 N.pl3   1  UNL11      -0.2163
     16 C          -2.5192    2.3267   -2.4975 C.ar    1  UNL11       0.0480
     17 C          -1.2879    2.9470   -2.4472 C.ar    1  UNL11      -0.0393
     18 C          -0.3951    3.0046   -3.4667 C.ar    1  UNL11      -0.0600
     19 C          -0.7160    2.4018   -4.6651 C.ar    1  UNL11      -0.0616
     20 C          -1.9355    1.7671   -4.7703 C.ar    1  UNL11      -0.0600
     21 C          -2.8223    1.7247   -3.7190 C.ar    1  UNL11      -0.0393
     22 C          -0.8058   -0.0345   -0.2084 C.ar    1  UNL11      -0.0229
     23 C          -1.0956    1.5324    2.8699 C.ar    1  UNL11       0.0382
     24 C          -2.4798    1.6040    2.7613 C.ar    1  UNL11      -0.0496
     25 C          -3.2807    2.1625    3.7486 C.ar    1  UNL11      -0.0610
     26 C          -2.7005    2.6683    4.8828 C.ar    1  UNL11      -0.0617
     27 C          -1.3279    2.6152    5.0259 C.ar    1  UNL11      -0.0610
     28 C          -0.5592    2.0550    4.0296 C.ar    1  UNL11      -0.0496
     29 H           1.2668    0.3203    3.1774 H       1  UNL11       0.1731
     30 H           2.9012   -0.2236    1.4900 H       1  UNL11       0.1731
     31 H           0.5020   -2.7675   -1.5967 H       1  UNL11       0.0625
     32 H          -1.8013   -2.9906   -2.4532 H       1  UNL11       0.0618
     33 H          -3.4434   -1.3122   -1.8661 H       1  UNL11       0.0637
     34 H          -4.1022    3.0989   -1.3291 H       1  UNL11       0.1737
     35 H          -1.0159    3.4316   -1.5145 H       1  UNL11       0.0636
     36 H           0.5530    3.5111   -3.3607 H       1  UNL11       0.0618
     37 H           0.0205    2.4693   -5.4487 H       1  UNL11       0.0618
     38 H          -2.1591    1.3057   -5.7222 H       1  UNL11       0.0618
     39 H          -3.7588    1.2209   -3.8368 H       1  UNL11       0.0636
     40 H          -0.5499    0.7973    0.4099 H       1  UNL11       0.0645
     41 H          -2.9241    1.1994    1.8571 H       1  UNL11       0.0625
     42 H          -4.3689    2.2072    3.6416 H       1  UNL11       0.0618
     43 H          -3.3550    3.1020    5.6484 H       1  UNL11       0.0618
     44 H          -0.8944    3.0169    5.9214 H       1  UNL11       0.0618
     45 H           0.5332    2.0110    4.1560 H       1  UNL11       0.0625
@<TRIPOS>BOND
     1     1     2    2
     2     2     3   am
     3     2    23    1
     4     3     4    1
     5     3    29    1
     6     4     5   am
     7     4    30    1
     8     5     6    2
     9     5     7    1
    10     7     8   ar
    11     8     9   ar
    12     8    31    1
    13     9    10   ar
    14     9    32    1
    15    10    11   ar
    16    10    33    1
    17    11    12    1
    18    11    22   ar
    19    12    13    2
    20    12    14    2
    21    12    15    1
    22    15    16    1
    23    15    34    1
    24    16    17   ar
    25    17    18   ar
    26    17    35    1
    27    18    19   ar
    28    18    36    1
    29    19    20   ar
    30    19    37    1
    31    20    21   ar
    32    20    38    1
    33    21    16   ar
    34    21    39    1
    35    22     7   ar
    36    22    40    1
    37    23    24   ar
    38    24    25   ar
    39    24    41    1
    40    25    26   ar
    41    25    42    1
    42    26    27   ar
    43    26    43    1
    44    27    28   ar
    45    27    44    1
    46    28    23   ar
    47    28    45    1
