@<TRIPOS>MOLECULE
*****
 46 49 0 0 0
SMALL
GASTEIGER

@<TRIPOS>ATOM
      1 O          -5.0893   -1.1191   -0.9116 O.2     1  UNL11      -0.2418
      2 C          -3.8304   -1.3040   -0.8625 C.2     1  UNL11       0.3328
      3 N          -3.0897   -0.5228    0.0266 N.am    1  UNL11      -0.1668
      4 C          -1.6720   -0.5643    0.2212 C.2     1  UNL11       0.3148
      5 C          -0.9982    0.1651    1.0653 C.2     1  UNL11       0.0147
      6 C           0.4367   -0.1846    0.9533 C.3     1  UNL11       0.0359
      7 C           0.4583   -1.2237   -0.0847 C.2     1  UNL11       0.1408
      8 C           1.6559   -1.9591   -0.6199 C.3     1  UNL11       0.0581
      9 C           1.1817   -2.9006   -1.6686 C.2     1  UNL11       0.1183
     10 N           1.3926   -4.2432   -1.5232 N.2     1  UNL11      -0.0075
     11 N           0.9910   -5.1429   -2.3935 N.am    1  UNL11      -0.0358
     12 C           0.3341   -4.7333   -3.4941 C.2     1  UNL11       0.4340
     13 O          -0.0566   -5.5737   -4.3339 O.2     1  UNL11      -0.2120
     14 C           0.0875   -3.3957   -3.7048 C.2     1  UNL11       0.0740
     15 C           0.5224   -2.4716   -2.7714 C.2     1  UNL11      -0.0071
     16 C           0.2360   -1.0606   -3.0951 C.3     1  UNL11      -0.0252
     17 C           0.6376   -0.7553   -4.5291 C.3     1  UNL11      -0.0487
     18 C          -0.0333   -1.6748   -5.5094 C.3     1  UNL11      -0.0484
     19 C          -0.6192   -2.9197   -4.8943 C.3     1  UNL11      -0.0176
     20 N          -0.7583   -1.4048   -0.4692 N.2     1  UNL11      -0.0504
     21 C          -3.2193   -2.3193   -1.7333 C.ar    1  UNL11       0.0616
     22 C          -2.0827   -2.9667   -1.2943 C.ar    1  UNL11      -0.0474
     23 C          -1.4488   -3.9305   -2.0490 C.ar    1  UNL11      -0.0610
     24 C          -1.9622   -4.2615   -3.2816 C.ar    1  UNL11      -0.0617
     25 C          -3.1058   -3.6331   -3.7615 C.ar    1  UNL11      -0.0610
     26 C          -3.6987   -2.6766   -2.9641 C.ar    1  UNL11      -0.0474
     27 H          -3.6295    0.1764    0.6232 H       1  UNL11       0.3016
     28 H          -1.3217    0.9255    1.7743 H       1  UNL11       0.0657
     29 H           0.9653    0.7548    0.6067 H       1  UNL11       0.0392
     30 H           0.8500   -0.5354    1.9262 H       1  UNL11       0.0392
     31 H           2.4164   -1.2624   -0.9661 H       1  UNL11       0.0413
     32 H           2.1319   -2.5252    0.2302 H       1  UNL11       0.0413
     33 H           1.1521   -6.1621   -2.2811 H       1  UNL11       0.4828
     34 H          -0.8568   -0.8694   -2.9670 H       1  UNL11       0.0314
     35 H           0.8166   -0.4103   -2.4344 H       1  UNL11       0.0314
     36 H           0.3016    0.2794   -4.7462 H       1  UNL11       0.0268
     37 H           1.7367   -0.7635   -4.5888 H       1  UNL11       0.0268
     38 H          -0.8360   -1.1509   -6.0745 H       1  UNL11       0.0269
     39 H           0.7126   -1.9963   -6.2648 H       1  UNL11       0.0269
     40 H          -0.6292   -3.7598   -5.6426 H       1  UNL11       0.0316
     41 H          -1.6985   -2.7375   -4.6560 H       1  UNL11       0.0316
     42 H          -1.6222   -2.7480   -0.3187 H       1  UNL11       0.0626
     43 H          -0.5621   -4.4398   -1.7137 H       1  UNL11       0.0618
     44 H          -1.4982   -5.0125   -3.9095 H       1  UNL11       0.0618
     45 H          -3.5389   -3.8685   -4.7285 H       1  UNL11       0.0618
     46 H          -4.5824   -2.1985   -3.3478 H       1  UNL11       0.0626
@<TRIPOS>BOND
     1     1     2    2
     2     2     3   am
     3     2    21    1
     4     3     4    1
     5     3    27    1
     6     4     5    2
     7     5     6    1
     8     5    28    1
     9     6     7    1
    10     6    29    1
    11     6    30    1
    12     7     8    1
    13     7    20    2
    14     8     9    1
    15     8    31    1
    16     8    32    1
    17     9    10    2
    18    10    11    1
    19    11    12   am
    20    11    33    1
    21    12    13    2
    22    12    14    1
    23    14    15    2
    24    15    16    1
    25    15     9    1
    26    16    17    1
    27    16    34    1
    28    16    35    1
    29    17    18    1
    30    17    36    1
    31    17    37    1
    32    18    19    1
    33    18    38    1
    34    18    39    1
    35    19    14    1
    36    19    40    1
    37    19    41    1
    38    20     4    1
    39    21    22   ar
    40    22    23   ar
    41    22    42    1
    42    23    24   ar
    43    23    43    1
    44    24    25   ar
    45    24    44    1
    46    25    26   ar
    47    25    45    1
    48    26    21   ar
    49    26    46    1
@<TRIPOS>MOLECULE
*****
 46 49 0 0 0
SMALL
GASTEIGER

@<TRIPOS>ATOM
      1 O          -5.0893   -1.1191   -0.9116 O.2     1  UNL11      -0.2418
      2 C          -3.8304   -1.3040   -0.8625 C.2     1  UNL11       0.3328
      3 N          -3.0897   -0.5228    0.0266 N.am    1  UNL11      -0.1668
      4 C          -1.6720   -0.5643    0.2212 C.2     1  UNL11       0.3148
      5 C          -0.9982    0.1651    1.0653 C.2     1  UNL11       0.0147
      6 C           0.4367   -0.1846    0.9533 C.3     1  UNL11       0.0359
      7 C           0.4583   -1.2237   -0.0847 C.2     1  UNL11       0.1408
      8 C           1.6559   -1.9591   -0.6199 C.3     1  UNL11       0.0581
      9 C           1.1817   -2.9006   -1.6686 C.2     1  UNL11       0.1183
     10 N          -0.0769   -3.4281   -1.5904 N.2     1  UNL11      -0.0075
     11 N          -0.5787   -4.2525   -2.4831 N.am    1  UNL11      -0.0358
     12 C           0.1780   -4.6055   -3.5383 C.2     1  UNL11       0.4340
     13 O          -0.2813   -5.3884   -4.3987 O.2     1  UNL11      -0.2120
     14 C           1.4552   -4.1122   -3.6800 C.2     1  UNL11       0.0740
     15 C           1.9566   -3.2464   -2.7244 C.2     1  UNL11      -0.0071
     16 C           3.3426   -2.7909   -2.9466 C.3     1  UNL11      -0.0252
     17 C           4.2419   -3.9728   -3.2704 C.3     1  UNL11      -0.0487
     18 C           3.7410   -4.7543   -4.4514 C.3     1  UNL11      -0.0484
     19 C           2.3035   -4.4822   -4.8132 C.3     1  UNL11      -0.0176
     20 N          -0.7583   -1.4048   -0.4692 N.2     1  UNL11      -0.0504
     21 C          -3.2193   -2.3193   -1.7333 C.ar    1  UNL11       0.0616
     22 C          -1.9246   -2.1224   -2.1677 C.ar    1  UNL11      -0.0474
     23 C          -1.2791   -3.0252   -2.9854 C.ar    1  UNL11      -0.0610
     24 C          -1.9435   -4.1618   -3.3848 C.ar    1  UNL11      -0.0617
     25 C          -3.2491   -4.3985   -2.9697 C.ar    1  UNL11      -0.0610
     26 C          -3.8457   -3.4615   -2.1521 C.ar    1  UNL11      -0.0474
     27 H          -3.6295    0.1764    0.6232 H       1  UNL11       0.3016
     28 H          -1.3217    0.9255    1.7743 H       1  UNL11       0.0657
     29 H           0.9653    0.7548    0.6067 H       1  UNL11       0.0392
     30 H           0.8500   -0.5354    1.9262 H       1  UNL11       0.0392
     31 H           2.4164   -1.2624   -0.9661 H       1  UNL11       0.0413
     32 H           2.1319   -2.5252    0.2302 H       1  UNL11       0.0413
     33 H          -1.5348   -4.6519   -2.4219 H       1  UNL11       0.4828
     34 H           3.3590   -2.0679   -3.7975 H       1  UNL11       0.0314
     35 H           3.7204   -2.3164   -2.0362 H       1  UNL11       0.0314
     36 H           5.2380   -3.5600   -3.5316 H       1  UNL11       0.0268
     37 H           4.3645   -4.5737   -2.3562 H       1  UNL11       0.0268
     38 H           4.3696   -4.5773   -5.3524 H       1  UNL11       0.0269
     39 H           3.8280   -5.8368   -4.2256 H       1  UNL11       0.0269
     40 H           1.8438   -5.3857   -5.3012 H       1  UNL11       0.0316
     41 H           2.2682   -3.6849   -5.5993 H       1  UNL11       0.0316
     42 H          -1.3388   -1.2346   -1.8844 H       1  UNL11       0.0626
     43 H          -0.2697   -2.8789   -3.3284 H       1  UNL11       0.0618
     44 H          -1.4768   -4.8990   -4.0268 H       1  UNL11       0.0618
     45 H          -3.8039   -5.2835   -3.2647 H       1  UNL11       0.0618
     46 H          -4.8558   -3.6573   -1.8389 H       1  UNL11       0.0626
@<TRIPOS>BOND
     1     1     2    2
     2     2     3   am
     3     2    21    1
     4     3     4    1
     5     3    27    1
     6     4     5    2
     7     5     6    1
     8     5    28    1
     9     6     7    1
    10     6    29    1
    11     6    30    1
    12     7     8    1
    13     7    20    2
    14     8     9    1
    15     8    31    1
    16     8    32    1
    17     9    10    2
    18    10    11    1
    19    11    12   am
    20    11    33    1
    21    12    13    2
    22    12    14    1
    23    14    15    2
    24    15    16    1
    25    15     9    1
    26    16    17    1
    27    16    34    1
    28    16    35    1
    29    17    18    1
    30    17    36    1
    31    17    37    1
    32    18    19    1
    33    18    38    1
    34    18    39    1
    35    19    14    1
    36    19    40    1
    37    19    41    1
    38    20     4    1
    39    21    22   ar
    40    22    23   ar
    41    22    42    1
    42    23    24   ar
    43    23    43    1
    44    24    25   ar
    45    24    44    1
    46    25    26   ar
    47    25    45    1
    48    26    21   ar
    49    26    46    1
@<TRIPOS>MOLECULE
*****
 46 49 0 0 0
SMALL
GASTEIGER

@<TRIPOS>ATOM
      1 O          -5.0893   -1.1191   -0.9116 O.2     1  UNL11      -0.2418
      2 C          -3.8304   -1.3040   -0.8625 C.2     1  UNL11       0.3328
      3 N          -3.0897   -0.5228    0.0266 N.am    1  UNL11      -0.1668
      4 C          -1.6720   -0.5643    0.2212 C.2     1  UNL11       0.3148
      5 C          -0.9982    0.1651    1.0653 C.2     1  UNL11       0.0147
      6 C           0.4367   -0.1846    0.9533 C.3     1  UNL11       0.0359
      7 C           0.4583   -1.2237   -0.0847 C.2     1  UNL11       0.1408
      8 C           1.6559   -1.9591   -0.6199 C.3     1  UNL11       0.0581
      9 C           1.1817   -2.9006   -1.6686 C.2     1  UNL11       0.1183
     10 N           0.0704   -2.5962   -2.4039 N.2     1  UNL11      -0.0075
     11 N          -0.4044   -3.3640   -3.3596 N.am    1  UNL11      -0.0358
     12 C           0.2290   -4.5176   -3.6403 C.2     1  UNL11       0.4340
     13 O          -0.2068   -5.2618   -4.5461 O.2     1  UNL11      -0.2120
     14 C           1.3541   -4.8869   -2.9387 C.2     1  UNL11       0.0740
     15 C           1.8307   -4.0586   -1.9382 C.2     1  UNL11      -0.0071
     16 C           3.0251   -4.5496   -1.2240 C.3     1  UNL11      -0.0252
     17 C           2.8363   -6.0010   -0.8138 C.3     1  UNL11      -0.0487
     18 C           2.5174   -6.8811   -1.9886 C.3     1  UNL11      -0.0484
     19 C           2.0609   -6.1374   -3.2174 C.3     1  UNL11      -0.0176
     20 N          -0.7583   -1.4048   -0.4692 N.2     1  UNL11      -0.0504
     21 C          -3.2193   -2.3193   -1.7333 C.ar    1  UNL11       0.0616
     22 C          -3.9712   -3.4193   -2.0918 C.ar    1  UNL11      -0.0474
     23 C          -3.4736   -4.4156   -2.9043 C.ar    1  UNL11      -0.0610
     24 C          -2.1852   -4.3148   -3.3759 C.ar    1  UNL11      -0.0617
     25 C          -1.3937   -3.2227   -3.0386 C.ar    1  UNL11      -0.0610
     26 C          -1.9431   -2.2558   -2.2227 C.ar    1  UNL11      -0.0474
     27 H          -3.6295    0.1764    0.6232 H       1  UNL11       0.3016
     28 H          -1.3217    0.9255    1.7743 H       1  UNL11       0.0657
     29 H           0.9653    0.7548    0.6067 H       1  UNL11       0.0392
     30 H           0.8500   -0.5354    1.9262 H       1  UNL11       0.0392
     31 H           2.4164   -1.2624   -0.9661 H       1  UNL11       0.0413
     32 H           2.1319   -2.5252    0.2302 H       1  UNL11       0.0413
     33 H          -1.2484   -3.1310   -3.9169 H       1  UNL11       0.4828
     34 H           3.9138   -4.4662   -1.8952 H       1  UNL11       0.0314
     35 H           3.1760   -3.9573   -0.3168 H       1  UNL11       0.0314
     36 H           3.7990   -6.3434   -0.3818 H       1  UNL11       0.0268
     37 H           2.0842   -6.0375   -0.0108 H       1  UNL11       0.0268
     38 H           3.3858   -7.5190   -2.2664 H       1  UNL11       0.0269
     39 H           1.7047   -7.5791   -1.7011 H       1  UNL11       0.0269
     40 H           1.3781   -6.7832   -3.8359 H       1  UNL11       0.0316
     41 H           2.9448   -5.9433   -3.8777 H       1  UNL11       0.0316
     42 H          -5.0075   -3.5594   -1.7483 H       1  UNL11       0.0626
     43 H          -4.0536   -5.2764   -3.1884 H       1  UNL11       0.0618
     44 H          -1.7519   -5.0730   -4.0169 H       1  UNL11       0.0618
     45 H          -0.3737   -3.1099   -3.3918 H       1  UNL11       0.0618
     46 H          -1.3196   -1.4168   -1.9696 H       1  UNL11       0.0626
@<TRIPOS>BOND
     1     1     2    2
     2     2     3   am
     3     2    21    1
     4     3     4    1
     5     3    27    1
     6     4     5    2
     7     5     6    1
     8     5    28    1
     9     6     7    1
    10     6    29    1
    11     6    30    1
    12     7     8    1
    13     7    20    2
    14     8     9    1
    15     8    31    1
    16     8    32    1
    17     9    10    2
    18    10    11    1
    19    11    12   am
    20    11    33    1
    21    12    13    2
    22    12    14    1
    23    14    15    2
    24    15    16    1
    25    15     9    1
    26    16    17    1
    27    16    34    1
    28    16    35    1
    29    17    18    1
    30    17    36    1
    31    17    37    1
    32    18    19    1
    33    18    38    1
    34    18    39    1
    35    19    14    1
    36    19    40    1
    37    19    41    1
    38    20     4    1
    39    21    22   ar
    40    22    23   ar
    41    22    42    1
    42    23    24   ar
    43    23    43    1
    44    24    25   ar
    45    24    44    1
    46    25    26   ar
    47    25    45    1
    48    26    21   ar
    49    26    46    1
@<TRIPOS>MOLECULE
*****
 46 49 0 0 0
SMALL
GASTEIGER

@<TRIPOS>ATOM
      1 O          -5.0520    0.1991   -0.9020 O.2     1  UNL11      -0.2418
      2 C          -3.7819    0.2860   -0.8768 C.2     1  UNL11       0.3328
      3 N          -3.0897   -0.5228    0.0266 N.am    1  UNL11      -0.1668
      4 C          -1.6720   -0.5643    0.2212 C.2     1  UNL11       0.3148
      5 C          -0.9982    0.1651    1.0653 C.2     1  UNL11       0.0147
      6 C           0.4367   -0.1846    0.9533 C.3     1  UNL11       0.0359
      7 C           0.4583   -1.2237   -0.0847 C.2     1  UNL11       0.1408
      8 C           1.6559   -1.9591   -0.6199 C.3     1  UNL11       0.0581
      9 C           2.1812   -1.1916   -1.7801 C.2     1  UNL11       0.1183
     10 N           1.7229   -1.4627   -3.0389 N.2     1  UNL11      -0.0075
     11 N           2.1218   -0.8204   -4.1143 N.am    1  UNL11      -0.0358
     12 C           3.0323    0.1617   -3.9832 C.2     1  UNL11       0.4340
     13 O           3.4244    0.7851   -4.9942 O.2     1  UNL11      -0.2120
     14 C           3.5372    0.4874   -2.7449 C.2     1  UNL11       0.0740
     15 C           3.0987   -0.2062   -1.6310 C.2     1  UNL11      -0.0071
     16 C           3.7149    0.1947   -0.3514 C.3     1  UNL11      -0.0252
     17 C           5.2257    0.2789   -0.4958 C.3     1  UNL11      -0.0487
     18 C           5.6345    1.2112   -1.6004 C.3     1  UNL11      -0.0484
     19 C           4.5320    1.5463   -2.5718 C.3     1  UNL11      -0.0176
     20 N          -0.7583   -1.4048   -0.4692 N.2     1  UNL11      -0.0504
     21 C          -3.1080    1.2227   -1.7885 C.ar    1  UNL11       0.0616
     22 C          -3.7022    1.5044   -3.0015 C.ar    1  UNL11      -0.0474
     23 C          -3.1366    2.3708   -3.9125 C.ar    1  UNL11      -0.0610
     24 C          -1.9400    2.9771   -3.6071 C.ar    1  UNL11      -0.0617
     25 C          -1.3080    2.7206   -2.3956 C.ar    1  UNL11      -0.0610
     26 C          -1.9192    1.8455   -1.5221 C.ar    1  UNL11      -0.0474
     27 H          -3.6708   -1.1774    0.6348 H       1  UNL11       0.3016
     28 H          -1.3217    0.9255    1.7743 H       1  UNL11       0.0657
     29 H           0.9653    0.7548    0.6067 H       1  UNL11       0.0392
     30 H           0.8500   -0.5354    1.9262 H       1  UNL11       0.0392
     31 H           2.3905   -2.1275    0.1647 H       1  UNL11       0.0413
     32 H           1.3238   -2.9854   -0.9456 H       1  UNL11       0.0413
     33 H           1.7723   -1.0277   -5.0694 H       1  UNL11       0.4828
     34 H           3.3148    1.1923   -0.0483 H       1  UNL11       0.0314
     35 H           3.4882   -0.5548    0.4125 H       1  UNL11       0.0314
     36 H           5.6201    0.6857    0.4580 H       1  UNL11       0.0268
     37 H           5.6194   -0.7433   -0.6050 H       1  UNL11       0.0268
     38 H           6.0488    2.1621   -1.1975 H       1  UNL11       0.0269
     39 H           6.4557    0.7405   -2.1787 H       1  UNL11       0.0269
     40 H           4.9599    1.7798   -3.5858 H       1  UNL11       0.0316
     41 H           4.0338    2.4957   -2.2472 H       1  UNL11       0.0316
     42 H          -4.6587    1.0527   -3.3058 H       1  UNL11       0.0626
     43 H          -3.5936    2.5957   -4.8604 H       1  UNL11       0.0618
     44 H          -1.4584    3.6648   -4.2916 H       1  UNL11       0.0618
     45 H          -0.3640    3.1804   -2.1210 H       1  UNL11       0.0618
     46 H          -1.4191    1.6562   -0.5889 H       1  UNL11       0.0626
@<TRIPOS>BOND
     1     1     2    2
     2     2     3   am
     3     2    21    1
     4     3     4    1
     5     3    27    1
     6     4     5    2
     7     5     6    1
     8     5    28    1
     9     6     7    1
    10     6    29    1
    11     6    30    1
    12     7     8    1
    13     7    20    2
    14     8     9    1
    15     8    31    1
    16     8    32    1
    17     9    10    2
    18    10    11    1
    19    11    12   am
    20    11    33    1
    21    12    13    2
    22    12    14    1
    23    14    15    2
    24    15    16    1
    25    15     9    1
    26    16    17    1
    27    16    34    1
    28    16    35    1
    29    17    18    1
    30    17    36    1
    31    17    37    1
    32    18    19    1
    33    18    38    1
    34    18    39    1
    35    19    14    1
    36    19    40    1
    37    19    41    1
    38    20     4    1
    39    21    22   ar
    40    22    23   ar
    41    22    42    1
    42    23    24   ar
    43    23    43    1
    44    24    25   ar
    45    24    44    1
    46    25    26   ar
    47    25    45    1
    48    26    21   ar
    49    26    46    1
@<TRIPOS>MOLECULE
*****
 46 49 0 0 0
SMALL
GASTEIGER

@<TRIPOS>ATOM
      1 O          -5.0893   -1.1191   -0.9116 O.2     1  UNL11      -0.2418
      2 C          -3.8304   -1.3040   -0.8625 C.2     1  UNL11       0.3328
      3 N          -3.0897   -0.5228    0.0266 N.am    1  UNL11      -0.1668
      4 C          -1.6720   -0.5643    0.2212 C.2     1  UNL11       0.3148
      5 C          -0.9982    0.1651    1.0653 C.2     1  UNL11       0.0147
      6 C           0.4367   -0.1846    0.9533 C.3     1  UNL11       0.0359
      7 C           0.4583   -1.2237   -0.0847 C.2     1  UNL11       0.1408
      8 C           1.6559   -1.9591   -0.6199 C.3     1  UNL11       0.0581
      9 C           2.1812   -1.1916   -1.7801 C.2     1  UNL11       0.1183
     10 N           1.3286   -0.4452   -2.5443 N.2     1  UNL11      -0.0075
     11 N           1.7135    0.2748   -3.5747 N.am    1  UNL11      -0.0358
     12 C           3.0173    0.2868   -3.9073 C.2     1  UNL11       0.4340
     13 O           3.4036    0.9657   -4.8841 O.2     1  UNL11      -0.2120
     14 C           3.9315   -0.4423   -3.1814 C.2     1  UNL11       0.0740
     15 C           3.4970   -1.1908   -2.1020 C.2     1  UNL11      -0.0071
     16 C           4.5438   -1.9595   -1.4011 C.3     1  UNL11      -0.0252
     17 C           5.3999   -2.7200   -2.4008 C.3     1  UNL11      -0.0487
     18 C           6.0054   -1.8095   -3.4307 C.3     1  UNL11      -0.0484
     19 C           5.3544   -0.4534   -3.5222 C.3     1  UNL11      -0.0176
     20 N          -0.7583   -1.4048   -0.4692 N.2     1  UNL11      -0.0504
     21 C          -3.2193   -2.3193   -1.7333 C.ar    1  UNL11       0.0616
     22 C          -1.9246   -2.1224   -2.1677 C.ar    1  UNL11      -0.0474
     23 C          -1.2791   -3.0252   -2.9854 C.ar    1  UNL11      -0.0610
     24 C          -1.9435   -4.1618   -3.3848 C.ar    1  UNL11      -0.0617
     25 C          -3.2491   -4.3985   -2.9697 C.ar    1  UNL11      -0.0610
     26 C          -3.8457   -3.4615   -2.1521 C.ar    1  UNL11      -0.0474
     27 H          -3.6295    0.1764    0.6232 H       1  UNL11       0.3016
     28 H          -1.3217    0.9255    1.7743 H       1  UNL11       0.0657
     29 H           0.9653    0.7548    0.6067 H       1  UNL11       0.0392
     30 H           0.8500   -0.5354    1.9262 H       1  UNL11       0.0392
     31 H           2.3905   -2.1275    0.1647 H       1  UNL11       0.0413
     32 H           1.3238   -2.9854   -0.9456 H       1  UNL11       0.0413
     33 H           1.0643    0.8411   -4.1537 H       1  UNL11       0.4828
     34 H           5.1881   -1.2564   -0.8199 H       1  UNL11       0.0314
     35 H           4.0750   -2.6876   -0.7326 H       1  UNL11       0.0314
     36 H           6.2277   -3.1873   -1.8289 H       1  UNL11       0.0268
     37 H           4.7930   -3.5343   -2.8255 H       1  UNL11       0.0268
     38 H           7.0948   -1.6652   -3.2557 H       1  UNL11       0.0269
     39 H           5.9166   -2.2890   -4.4269 H       1  UNL11       0.0269
     40 H           5.4580   -0.0377   -4.5625 H       1  UNL11       0.0316
     41 H           5.9138    0.2662   -2.8708 H       1  UNL11       0.0316
     42 H          -1.3388   -1.2346   -1.8844 H       1  UNL11       0.0626
     43 H          -0.2697   -2.8789   -3.3284 H       1  UNL11       0.0618
     44 H          -1.4768   -4.8990   -4.0268 H       1  UNL11       0.0618
     45 H          -3.8039   -5.2835   -3.2647 H       1  UNL11       0.0618
     46 H          -4.8558   -3.6573   -1.8389 H       1  UNL11       0.0626
@<TRIPOS>BOND
     1     1     2    2
     2     2     3   am
     3     2    21    1
     4     3     4    1
     5     3    27    1
     6     4     5    2
     7     5     6    1
     8     5    28    1
     9     6     7    1
    10     6    29    1
    11     6    30    1
    12     7     8    1
    13     7    20    2
    14     8     9    1
    15     8    31    1
    16     8    32    1
    17     9    10    2
    18    10    11    1
    19    11    12   am
    20    11    33    1
    21    12    13    2
    22    12    14    1
    23    14    15    2
    24    15    16    1
    25    15     9    1
    26    16    17    1
    27    16    34    1
    28    16    35    1
    29    17    18    1
    30    17    36    1
    31    17    37    1
    32    18    19    1
    33    18    38    1
    34    18    39    1
    35    19    14    1
    36    19    40    1
    37    19    41    1
    38    20     4    1
    39    21    22   ar
    40    22    23   ar
    41    22    42    1
    42    23    24   ar
    43    23    43    1
    44    24    25   ar
    45    24    44    1
    46    25    26   ar
    47    25    45    1
    48    26    21   ar
    49    26    46    1
@<TRIPOS>MOLECULE
*****
 46 49 0 0 0
SMALL
GASTEIGER

@<TRIPOS>ATOM
      1 O          -3.2017   -2.1459   -1.5818 O.2     1  UNL11      -0.2418
      2 C          -3.8304   -1.3040   -0.8625 C.2     1  UNL11       0.3328
      3 N          -3.0897   -0.5228    0.0266 N.am    1  UNL11      -0.1668
      4 C          -1.6720   -0.5643    0.2212 C.2     1  UNL11       0.3148
      5 C          -0.9982    0.1651    1.0653 C.2     1  UNL11       0.0147
      6 C           0.4367   -0.1846    0.9533 C.3     1  UNL11       0.0359
      7 C           0.4583   -1.2237   -0.0847 C.2     1  UNL11       0.1408
      8 C           1.6559   -1.9591   -0.6199 C.3     1  UNL11       0.0581
      9 C           1.1817   -2.9006   -1.6686 C.2     1  UNL11       0.1183
     10 N          -0.1490   -2.9641   -1.9744 N.2     1  UNL11      -0.0075
     11 N          -0.6479   -3.7550   -2.8984 N.am    1  UNL11      -0.0358
     12 C           0.1868   -4.5525   -3.5898 C.2     1  UNL11       0.4340
     13 O          -0.2682   -5.3119   -4.4733 O.2     1  UNL11      -0.2120
     14 C           1.5390   -4.5403   -3.3336 C.2     1  UNL11       0.0740
     15 C           2.0353   -3.6975   -2.3550 C.2     1  UNL11      -0.0071
     16 C           3.4923   -3.7726   -2.1329 C.3     1  UNL11      -0.0252
     17 C           3.9342   -5.2218   -2.0099 C.3     1  UNL11      -0.0487
     18 C           3.5340   -6.0358   -3.2073 C.3     1  UNL11      -0.0484
     19 C           2.4704   -5.3998   -4.0648 C.3     1  UNL11      -0.0176
     20 N          -0.7583   -1.4048   -0.4692 N.2     1  UNL11      -0.0504
     21 C          -5.2905   -1.1928   -0.9977 C.ar    1  UNL11       0.0616
     22 C          -6.0054   -2.3129   -1.3691 C.ar    1  UNL11      -0.0474
     23 C          -7.3758   -2.2934   -1.5179 C.ar    1  UNL11      -0.0610
     24 C          -8.0580   -1.1208   -1.2900 C.ar    1  UNL11      -0.0617
     25 C          -7.3757    0.0309   -0.9142 C.ar    1  UNL11      -0.0610
     26 C          -6.0052   -0.0464   -0.7802 C.ar    1  UNL11      -0.0474
     27 H          -3.6295    0.1764    0.6232 H       1  UNL11       0.3016
     28 H          -1.3217    0.9255    1.7743 H       1  UNL11       0.0657
     29 H           0.9653    0.7548    0.6067 H       1  UNL11       0.0392
     30 H           0.8500   -0.5354    1.9262 H       1  UNL11       0.0392
     31 H           2.4164   -1.2624   -0.9661 H       1  UNL11       0.0413
     32 H           2.1319   -2.5252    0.2302 H       1  UNL11       0.0413
     33 H          -1.6588   -3.8016   -3.1293 H       1  UNL11       0.4828
     34 H           4.0196   -3.2956   -2.9941 H       1  UNL11       0.0314
     35 H           3.7454   -3.2603   -1.2001 H       1  UNL11       0.0314
     36 H           5.0422   -5.2189   -1.9536 H       1  UNL11       0.0268
     37 H           3.5574   -5.6174   -1.0542 H       1  UNL11       0.0268
     38 H           4.4108   -6.2702   -3.8511 H       1  UNL11       0.0269
     39 H           3.1405   -7.0126   -2.8590 H       1  UNL11       0.0269
     40 H           1.8641   -6.1898   -4.5885 H       1  UNL11       0.0316
     41 H           2.9615   -4.8236   -4.8905 H       1  UNL11       0.0316
     42 H          -5.5197   -3.2809   -1.5660 H       1  UNL11       0.0626
     43 H          -7.9404   -3.1626   -1.8072 H       1  UNL11       0.0618
     44 H          -9.1343   -1.0579   -1.3946 H       1  UNL11       0.0618
     45 H          -7.8805    0.9731   -0.7262 H       1  UNL11       0.0618
     46 H          -5.4903    0.8519   -0.4893 H       1  UNL11       0.0626
@<TRIPOS>BOND
     1     1     2    2
     2     2     3   am
     3     2    21    1
     4     3     4    1
     5     3    27    1
     6     4     5    2
     7     5     6    1
     8     5    28    1
     9     6     7    1
    10     6    29    1
    11     6    30    1
    12     7     8    1
    13     7    20    2
    14     8     9    1
    15     8    31    1
    16     8    32    1
    17     9    10    2
    18    10    11    1
    19    11    12   am
    20    11    33    1
    21    12    13    2
    22    12    14    1
    23    14    15    2
    24    15    16    1
    25    15     9    1
    26    16    17    1
    27    16    34    1
    28    16    35    1
    29    17    18    1
    30    17    36    1
    31    17    37    1
    32    18    19    1
    33    18    38    1
    34    18    39    1
    35    19    14    1
    36    19    40    1
    37    19    41    1
    38    20     4    1
    39    21    22   ar
    40    22    23   ar
    41    22    42    1
    42    23    24   ar
    43    23    43    1
    44    24    25   ar
    45    24    44    1
    46    25    26   ar
    47    25    45    1
    48    26    21   ar
    49    26    46    1
@<TRIPOS>MOLECULE
*****
 46 49 0 0 0
SMALL
GASTEIGER

@<TRIPOS>ATOM
      1 O          -5.2317    0.1865    0.4044 O.2     1  UNL11      -0.2418
      2 C          -3.9979    0.2970    0.6993 C.2     1  UNL11       0.3328
      3 N          -3.0897   -0.5228    0.0266 N.am    1  UNL11      -0.1668
      4 C          -1.6720   -0.5643    0.2212 C.2     1  UNL11       0.3148
      5 C          -0.9982    0.1651    1.0653 C.2     1  UNL11       0.0147
      6 C           0.4367   -0.1846    0.9533 C.3     1  UNL11       0.0359
      7 C           0.4583   -1.2237   -0.0847 C.2     1  UNL11       0.1408
      8 C           1.6559   -1.9591   -0.6199 C.3     1  UNL11       0.0581
      9 C           1.8464   -3.1815    0.2050 C.2     1  UNL11       0.1183
     10 N           0.7667   -3.7846    0.7870 N.2     1  UNL11      -0.0075
     11 N           0.8459   -4.8759    1.5157 N.am    1  UNL11      -0.0358
     12 C           2.0516   -5.4418    1.7079 C.2     1  UNL11       0.4340
     13 O           2.1480   -6.4806    2.3977 O.2     1  UNL11      -0.2120
     14 C           3.1817   -4.8873    1.1514 C.2     1  UNL11       0.0740
     15 C           3.0675   -3.7383    0.3892 C.2     1  UNL11      -0.0071
     16 C           4.3350   -3.2025   -0.1439 C.3     1  UNL11      -0.0252
     17 C           5.3845   -3.1375    0.9538 C.3     1  UNL11      -0.0487
     18 C           5.6016   -4.4737    1.6049 C.3     1  UNL11      -0.0484
     19 C           4.5066   -5.4767    1.3473 C.3     1  UNL11      -0.0176
     20 N          -0.7583   -1.4048   -0.4692 N.2     1  UNL11      -0.0504
     21 C          -3.5886    1.2706    1.7226 C.ar    1  UNL11       0.0616
     22 C          -2.3415    1.8516    1.6184 C.ar    1  UNL11      -0.0474
     23 C          -1.8818    2.7730    2.5350 C.ar    1  UNL11      -0.0610
     24 C          -2.6892    3.1284    3.5905 C.ar    1  UNL11      -0.0617
     25 C          -3.9530    2.5667    3.7326 C.ar    1  UNL11      -0.0610
     26 C          -4.3614    1.6503    2.7860 C.ar    1  UNL11      -0.0474
     27 H          -3.4868   -1.1862   -0.7070 H       1  UNL11       0.3016
     28 H          -1.3217    0.9255    1.7743 H       1  UNL11       0.0657
     29 H           0.9653    0.7548    0.6067 H       1  UNL11       0.0392
     30 H           0.8500   -0.5354    1.9262 H       1  UNL11       0.0392
     31 H           1.5450   -2.1594   -1.6834 H       1  UNL11       0.0413
     32 H           2.5532   -1.2831   -0.5336 H       1  UNL11       0.0413
     33 H           0.0247   -5.3324    1.9567 H       1  UNL11       0.4828
     34 H           4.6974   -3.8670   -0.9650 H       1  UNL11       0.0314
     35 H           4.1724   -2.1878   -0.5185 H       1  UNL11       0.0314
     36 H           6.3370   -2.8328    0.4735 H       1  UNL11       0.0268
     37 H           5.1002   -2.3390    1.6561 H       1  UNL11       0.0268
     38 H           6.5707   -4.9243    1.2952 H       1  UNL11       0.0269
     39 H           5.6685   -4.3289    2.7025 H       1  UNL11       0.0269
     40 H           4.4319   -6.2044    2.2021 H       1  UNL11       0.0316
     41 H           4.7854   -6.1043    0.4623 H       1  UNL11       0.0316
     42 H          -1.6479    1.6103    0.7984 H       1  UNL11       0.0626
     43 H          -0.9106    3.2305    2.4607 H       1  UNL11       0.0618
     44 H          -2.3705    3.8479    4.3350 H       1  UNL11       0.0618
     45 H          -4.6169    2.8230    4.5520 H       1  UNL11       0.0618
     46 H          -5.3410    1.2236    2.9084 H       1  UNL11       0.0626
@<TRIPOS>BOND
     1     1     2    2
     2     2     3   am
     3     2    21    1
     4     3     4    1
     5     3    27    1
     6     4     5    2
     7     5     6    1
     8     5    28    1
     9     6     7    1
    10     6    29    1
    11     6    30    1
    12     7     8    1
    13     7    20    2
    14     8     9    1
    15     8    31    1
    16     8    32    1
    17     9    10    2
    18    10    11    1
    19    11    12   am
    20    11    33    1
    21    12    13    2
    22    12    14    1
    23    14    15    2
    24    15    16    1
    25    15     9    1
    26    16    17    1
    27    16    34    1
    28    16    35    1
    29    17    18    1
    30    17    36    1
    31    17    37    1
    32    18    19    1
    33    18    38    1
    34    18    39    1
    35    19    14    1
    36    19    40    1
    37    19    41    1
    38    20     4    1
    39    21    22   ar
    40    22    23   ar
    41    22    42    1
    42    23    24   ar
    43    23    43    1
    44    24    25   ar
    45    24    44    1
    46    25    26   ar
    47    25    45    1
    48    26    21   ar
    49    26    46    1
@<TRIPOS>MOLECULE
*****
 46 49 0 0 0
SMALL
GASTEIGER

@<TRIPOS>ATOM
      1 O          -5.0893   -1.1191   -0.9116 O.2     1  UNL11      -0.2418
      2 C          -3.8304   -1.3040   -0.8625 C.2     1  UNL11       0.3328
      3 N          -3.0897   -0.5228    0.0266 N.am    1  UNL11      -0.1668
      4 C          -1.6720   -0.5643    0.2212 C.2     1  UNL11       0.3148
      5 C          -0.9982    0.1651    1.0653 C.2     1  UNL11       0.0147
      6 C           0.4367   -0.1846    0.9533 C.3     1  UNL11       0.0359
      7 C           0.4583   -1.2237   -0.0847 C.2     1  UNL11       0.1408
      8 C           1.6559   -1.9591   -0.6199 C.3     1  UNL11       0.0581
      9 C           2.2838   -2.6922    0.5112 C.2     1  UNL11       0.1183
     10 N           1.7404   -2.6068    1.7625 N.2     1  UNL11      -0.0075
     11 N           2.2225   -3.2359    2.8113 N.am    1  UNL11      -0.0358
     12 C           3.3120   -4.0109    2.6591 C.2     1  UNL11       0.4340
     13 O           3.7858   -4.6180    3.6446 O.2     1  UNL11      -0.2120
     14 C           3.9110   -4.1421    1.4269 C.2     1  UNL11       0.0740
     15 C           3.3812   -3.4678    0.3411 C.2     1  UNL11      -0.0071
     16 C           4.1054   -3.6481   -0.9320 C.3     1  UNL11      -0.0252
     17 C           5.5979   -3.4483   -0.7240 C.3     1  UNL11      -0.0487
     18 C           6.1456   -4.3612    0.3357 C.3     1  UNL11      -0.0484
     19 C           5.0994   -4.9729    1.2316 C.3     1  UNL11      -0.0176
     20 N          -0.7583   -1.4048   -0.4692 N.2     1  UNL11      -0.0504
     21 C          -3.2193   -2.3193   -1.7333 C.ar    1  UNL11       0.0616
     22 C          -3.9712   -3.4193   -2.0918 C.ar    1  UNL11      -0.0474
     23 C          -3.4736   -4.4156   -2.9043 C.ar    1  UNL11      -0.0610
     24 C          -2.1852   -4.3148   -3.3759 C.ar    1  UNL11      -0.0617
     25 C          -1.3937   -3.2227   -3.0386 C.ar    1  UNL11      -0.0610
     26 C          -1.9431   -2.2558   -2.2227 C.ar    1  UNL11      -0.0474
     27 H          -3.6295    0.1764    0.6232 H       1  UNL11       0.3016
     28 H          -1.3217    0.9255    1.7743 H       1  UNL11       0.0657
     29 H           0.9653    0.7548    0.6067 H       1  UNL11       0.0392
     30 H           0.8500   -0.5354    1.9262 H       1  UNL11       0.0392
     31 H           1.3780   -2.5965   -1.4566 H       1  UNL11       0.0413
     32 H           2.3745   -1.2023   -1.0447 H       1  UNL11       0.0413
     33 H           1.8082   -3.1698    3.7607 H       1  UNL11       0.4828
     34 H           3.9191   -4.6797   -1.3170 H       1  UNL11       0.0314
     35 H           3.7609   -2.9034   -1.6555 H       1  UNL11       0.0314
     36 H           6.0952   -3.7010   -1.6829 H       1  UNL11       0.0268
     37 H           5.7793   -2.3799   -0.5309 H       1  UNL11       0.0268
     38 H           6.7515   -5.1822   -0.1083 H       1  UNL11       0.0269
     39 H           6.8392   -3.7835    0.9804 H       1  UNL11       0.0269
     40 H           5.5317   -5.1919    2.2470 H       1  UNL11       0.0316
     41 H           4.8083   -5.9748    0.8238 H       1  UNL11       0.0316
     42 H          -5.0075   -3.5594   -1.7483 H       1  UNL11       0.0626
     43 H          -4.0536   -5.2764   -3.1884 H       1  UNL11       0.0618
     44 H          -1.7519   -5.0730   -4.0169 H       1  UNL11       0.0618
     45 H          -0.3737   -3.1099   -3.3918 H       1  UNL11       0.0618
     46 H          -1.3196   -1.4168   -1.9696 H       1  UNL11       0.0626
@<TRIPOS>BOND
     1     1     2    2
     2     2     3   am
     3     2    21    1
     4     3     4    1
     5     3    27    1
     6     4     5    2
     7     5     6    1
     8     5    28    1
     9     6     7    1
    10     6    29    1
    11     6    30    1
    12     7     8    1
    13     7    20    2
    14     8     9    1
    15     8    31    1
    16     8    32    1
    17     9    10    2
    18    10    11    1
    19    11    12   am
    20    11    33    1
    21    12    13    2
    22    12    14    1
    23    14    15    2
    24    15    16    1
    25    15     9    1
    26    16    17    1
    27    16    34    1
    28    16    35    1
    29    17    18    1
    30    17    36    1
    31    17    37    1
    32    18    19    1
    33    18    38    1
    34    18    39    1
    35    19    14    1
    36    19    40    1
    37    19    41    1
    38    20     4    1
    39    21    22   ar
    40    22    23   ar
    41    22    42    1
    42    23    24   ar
    43    23    43    1
    44    24    25   ar
    45    24    44    1
    46    25    26   ar
    47    25    45    1
    48    26    21   ar
    49    26    46    1
@<TRIPOS>MOLECULE
*****
 46 49 0 0 0
SMALL
GASTEIGER

@<TRIPOS>ATOM
      1 O          -5.2889   -0.7030    0.6311 O.2     1  UNL11      -0.2418
      2 C          -4.0691   -0.7713    0.9902 C.2     1  UNL11       0.3328
      3 N          -3.0897   -0.5228    0.0266 N.am    1  UNL11      -0.1668
      4 C          -1.6720   -0.5643    0.2212 C.2     1  UNL11       0.3148
      5 C          -0.9982    0.1651    1.0653 C.2     1  UNL11       0.0147
      6 C           0.4367   -0.1846    0.9533 C.3     1  UNL11       0.0359
      7 C           0.4583   -1.2237   -0.0847 C.2     1  UNL11       0.1408
      8 C           1.6559   -1.9591   -0.6199 C.3     1  UNL11       0.0581
      9 C           2.1812   -1.1916   -1.7801 C.2     1  UNL11       0.1183
     10 N           3.1309   -0.2282   -1.5847 N.2     1  UNL11      -0.0075
     11 N           3.6594    0.4825   -2.5562 N.am    1  UNL11      -0.0358
     12 C           3.2519    0.2596   -3.8191 C.2     1  UNL11       0.4340
     13 O           3.7428    0.9250   -4.7574 O.2     1  UNL11      -0.2120
     14 C           2.2981   -0.6955   -4.0885 C.2     1  UNL11       0.0740
     15 C           1.7597   -1.4279   -3.0455 C.2     1  UNL11      -0.0071
     16 C           0.7261   -2.4096   -3.4275 C.3     1  UNL11      -0.0252
     17 C          -0.2970   -1.7678   -4.3505 C.3     1  UNL11      -0.0487
     18 C           0.3433   -1.1654   -5.5685 C.3     1  UNL11      -0.0484
     19 C           1.8312   -0.9565   -5.4504 C.3     1  UNL11      -0.0176
     20 N          -0.7583   -1.4048   -0.4692 N.2     1  UNL11      -0.0504
     21 C          -3.7492   -1.1049    2.3862 C.ar    1  UNL11       0.0616
     22 C          -2.5759   -1.7812    2.6502 C.ar    1  UNL11      -0.0474
     23 C          -2.2022   -2.1312    3.9302 C.ar    1  UNL11      -0.0610
     24 C          -3.0228   -1.7977    4.9827 C.ar    1  UNL11      -0.0617
     25 C          -4.2141   -1.1162    4.7603 C.ar    1  UNL11      -0.0610
     26 C          -4.5378   -0.7912    3.4596 C.ar    1  UNL11      -0.0474
     27 H          -3.4263   -0.2766   -0.9543 H       1  UNL11       0.3016
     28 H          -1.3217    0.9255    1.7743 H       1  UNL11       0.0657
     29 H           0.9653    0.7548    0.6067 H       1  UNL11       0.0392
     30 H           0.8500   -0.5354    1.9262 H       1  UNL11       0.0392
     31 H           2.3905   -2.1275    0.1647 H       1  UNL11       0.0413
     32 H           1.3238   -2.9854   -0.9456 H       1  UNL11       0.0413
     33 H           4.3806    1.2136   -2.4056 H       1  UNL11       0.4828
     34 H           1.2115   -3.2681   -3.9514 H       1  UNL11       0.0314
     35 H           0.2040   -2.7563   -2.5309 H       1  UNL11       0.0314
     36 H          -0.9803   -2.5743   -4.6873 H       1  UNL11       0.0268
     37 H          -0.8945   -1.0554   -3.7611 H       1  UNL11       0.0268
     38 H           0.1455   -1.7772   -6.4766 H       1  UNL11       0.0269
     39 H          -0.1174   -0.1749   -5.7607 H       1  UNL11       0.0269
     40 H           2.1585   -0.0932   -6.0933 H       1  UNL11       0.0316
     41 H           2.3611   -1.8465   -5.8771 H       1  UNL11       0.0316
     42 H          -1.8765   -2.0769    1.8534 H       1  UNL11       0.0626
     43 H          -1.2890   -2.6586    4.1443 H       1  UNL11       0.0618
     44 H          -2.7704   -2.0518    6.0051 H       1  UNL11       0.0618
     45 H          -4.8858   -0.8369    5.5657 H       1  UNL11       0.0618
     46 H          -5.4621   -0.2645    3.3021 H       1  UNL11       0.0626
@<TRIPOS>BOND
     1     1     2    2
     2     2     3   am
     3     2    21    1
     4     3     4    1
     5     3    27    1
     6     4     5    2
     7     5     6    1
     8     5    28    1
     9     6     7    1
    10     6    29    1
    11     6    30    1
    12     7     8    1
    13     7    20    2
    14     8     9    1
    15     8    31    1
    16     8    32    1
    17     9    10    2
    18    10    11    1
    19    11    12   am
    20    11    33    1
    21    12    13    2
    22    12    14    1
    23    14    15    2
    24    15    16    1
    25    15     9    1
    26    16    17    1
    27    16    34    1
    28    16    35    1
    29    17    18    1
    30    17    36    1
    31    17    37    1
    32    18    19    1
    33    18    38    1
    34    18    39    1
    35    19    14    1
    36    19    40    1
    37    19    41    1
    38    20     4    1
    39    21    22   ar
    40    22    23   ar
    41    22    42    1
    42    23    24   ar
    43    23    43    1
    44    24    25   ar
    45    24    44    1
    46    25    26   ar
    47    25    45    1
    48    26    21   ar
    49    26    46    1
@<TRIPOS>MOLECULE
*****
 46 49 0 0 0
SMALL
GASTEIGER

@<TRIPOS>ATOM
      1 O          -5.0893   -1.1191   -0.9116 O.2     1  UNL11      -0.2418
      2 C          -3.8304   -1.3040   -0.8625 C.2     1  UNL11       0.3328
      3 N          -3.0897   -0.5228    0.0266 N.am    1  UNL11      -0.1668
      4 C          -1.6720   -0.5643    0.2212 C.2     1  UNL11       0.3148
      5 C          -0.9982    0.1651    1.0653 C.2     1  UNL11       0.0147
      6 C           0.4367   -0.1846    0.9533 C.3     1  UNL11       0.0359
      7 C           0.4583   -1.2237   -0.0847 C.2     1  UNL11       0.1408
      8 C           1.6559   -1.9591   -0.6199 C.3     1  UNL11       0.0581
      9 C           1.7443   -1.6858   -2.0789 C.2     1  UNL11       0.1183
     10 N           1.9027   -0.4027   -2.5223 N.2     1  UNL11      -0.0075
     11 N           2.0065   -0.0774   -3.7918 N.am    1  UNL11      -0.0358
     12 C           1.9556   -1.0524   -4.7178 C.2     1  UNL11       0.4340
     13 O           2.0529   -0.7636   -5.9308 O.2     1  UNL11      -0.2120
     14 C           1.7971   -2.3670   -4.3420 C.2     1  UNL11       0.0740
     15 C           1.6904   -2.6791   -2.9983 C.2     1  UNL11      -0.0071
     16 C           1.4968   -4.1099   -2.6933 C.3     1  UNL11      -0.0252
     17 C           0.4029   -4.6944   -3.5722 C.3     1  UNL11      -0.0487
     18 C           0.6876   -4.4938   -5.0334 C.3     1  UNL11      -0.0484
     19 C           1.7326   -3.4480   -5.3259 C.3     1  UNL11      -0.0176
     20 N          -0.7583   -1.4048   -0.4692 N.2     1  UNL11      -0.0504
     21 C          -3.2193   -2.3193   -1.7333 C.ar    1  UNL11       0.0616
     22 C          -2.0827   -2.9667   -1.2943 C.ar    1  UNL11      -0.0474
     23 C          -1.4488   -3.9305   -2.0490 C.ar    1  UNL11      -0.0610
     24 C          -1.9622   -4.2615   -3.2816 C.ar    1  UNL11      -0.0617
     25 C          -3.1058   -3.6331   -3.7615 C.ar    1  UNL11      -0.0610
     26 C          -3.6987   -2.6766   -2.9641 C.ar    1  UNL11      -0.0474
     27 H          -3.6295    0.1764    0.6232 H       1  UNL11       0.3016
     28 H          -1.3217    0.9255    1.7743 H       1  UNL11       0.0657
     29 H           0.9653    0.7548    0.6067 H       1  UNL11       0.0392
     30 H           0.8500   -0.5354    1.9262 H       1  UNL11       0.0392
     31 H           2.5542   -1.6919   -0.0675 H       1  UNL11       0.0413
     32 H           1.5060   -3.0604   -0.4348 H       1  UNL11       0.0413
     33 H           2.1270    0.8977   -4.1264 H       1  UNL11       0.4828
     34 H           2.4529   -4.6568   -2.8776 H       1  UNL11       0.0314
     35 H           1.1892   -4.2213   -1.6494 H       1  UNL11       0.0314
     36 H           0.3782   -5.7860   -3.3756 H       1  UNL11       0.0268
     37 H          -0.5622   -4.2793   -3.2437 H       1  UNL11       0.0268
     38 H           0.9960   -5.4449   -5.5219 H       1  UNL11       0.0269
     39 H          -0.2482   -4.1796   -5.5392 H       1  UNL11       0.0269
     40 H           1.5491   -2.9807   -6.3328 H       1  UNL11       0.0316
     41 H           2.7320   -3.9451   -5.4205 H       1  UNL11       0.0316
     42 H          -1.6222   -2.7480   -0.3187 H       1  UNL11       0.0626
     43 H          -0.5621   -4.4398   -1.7137 H       1  UNL11       0.0618
     44 H          -1.4982   -5.0125   -3.9095 H       1  UNL11       0.0618
     45 H          -3.5389   -3.8685   -4.7285 H       1  UNL11       0.0618
     46 H          -4.5824   -2.1985   -3.3478 H       1  UNL11       0.0626
@<TRIPOS>BOND
     1     1     2    2
     2     2     3   am
     3     2    21    1
     4     3     4    1
     5     3    27    1
     6     4     5    2
     7     5     6    1
     8     5    28    1
     9     6     7    1
    10     6    29    1
    11     6    30    1
    12     7     8    1
    13     7    20    2
    14     8     9    1
    15     8    31    1
    16     8    32    1
    17     9    10    2
    18    10    11    1
    19    11    12   am
    20    11    33    1
    21    12    13    2
    22    12    14    1
    23    14    15    2
    24    15    16    1
    25    15     9    1
    26    16    17    1
    27    16    34    1
    28    16    35    1
    29    17    18    1
    30    17    36    1
    31    17    37    1
    32    18    19    1
    33    18    38    1
    34    18    39    1
    35    19    14    1
    36    19    40    1
    37    19    41    1
    38    20     4    1
    39    21    22   ar
    40    22    23   ar
    41    22    42    1
    42    23    24   ar
    43    23    43    1
    44    24    25   ar
    45    24    44    1
    46    25    26   ar
    47    25    45    1
    48    26    21   ar
    49    26    46    1
@<TRIPOS>MOLECULE
*****
 46 49 0 0 0
SMALL
GASTEIGER

@<TRIPOS>ATOM
      1 O          -5.0520    0.1991   -0.9020 O.2     1  UNL11      -0.2418
      2 C          -3.7819    0.2860   -0.8768 C.2     1  UNL11       0.3328
      3 N          -3.0897   -0.5228    0.0266 N.am    1  UNL11      -0.1668
      4 C          -1.6720   -0.5643    0.2212 C.2     1  UNL11       0.3148
      5 C          -0.9982    0.1651    1.0653 C.2     1  UNL11       0.0147
      6 C           0.4367   -0.1846    0.9533 C.3     1  UNL11       0.0359
      7 C           0.4583   -1.2237   -0.0847 C.2     1  UNL11       0.1408
      8 C           1.6559   -1.9591   -0.6199 C.3     1  UNL11       0.0581
      9 C           1.1817   -2.9006   -1.6686 C.2     1  UNL11       0.1183
     10 N           0.8227   -4.1745   -1.3271 N.2     1  UNL11      -0.0075
     11 N           0.3776   -5.0623   -2.1884 N.am    1  UNL11      -0.0358
     12 C           0.2640   -4.7110   -3.4824 C.2     1  UNL11       0.4340
     13 O          -0.1578   -5.5411   -4.3174 O.2     1  UNL11      -0.2120
     14 C           0.6082   -3.4443   -3.8966 C.2     1  UNL11       0.0740
     15 C           1.0738   -2.5312   -2.9673 C.2     1  UNL11      -0.0071
     16 C           1.4426   -1.2085   -3.5080 C.3     1  UNL11      -0.0252
     17 C           2.3184   -1.3667   -4.7403 C.3     1  UNL11      -0.0487
     18 C           1.6595   -2.2097   -5.7947 C.3     1  UNL11      -0.0484
     19 C           0.5008   -3.0351   -5.2972 C.3     1  UNL11      -0.0176
     20 N          -0.7583   -1.4048   -0.4692 N.2     1  UNL11      -0.0504
     21 C          -3.1080    1.2227   -1.7885 C.ar    1  UNL11       0.0616
     22 C          -3.7022    1.5044   -3.0015 C.ar    1  UNL11      -0.0474
     23 C          -3.1366    2.3708   -3.9125 C.ar    1  UNL11      -0.0610
     24 C          -1.9400    2.9771   -3.6071 C.ar    1  UNL11      -0.0617
     25 C          -1.3080    2.7206   -2.3956 C.ar    1  UNL11      -0.0610
     26 C          -1.9192    1.8455   -1.5221 C.ar    1  UNL11      -0.0474
     27 H          -3.6708   -1.1774    0.6348 H       1  UNL11       0.3016
     28 H          -1.3217    0.9255    1.7743 H       1  UNL11       0.0657
     29 H           0.9653    0.7548    0.6067 H       1  UNL11       0.0392
     30 H           0.8500   -0.5354    1.9262 H       1  UNL11       0.0392
     31 H           2.4164   -1.2624   -0.9661 H       1  UNL11       0.0413
     32 H           2.1319   -2.5252    0.2302 H       1  UNL11       0.0413
     33 H           0.1054   -6.0292   -1.9271 H       1  UNL11       0.4828
     34 H           0.5137   -0.6523   -3.7818 H       1  UNL11       0.0314
     35 H           2.0114   -0.6535   -2.7564 H       1  UNL11       0.0314
     36 H           2.4719   -0.3517   -5.1611 H       1  UNL11       0.0268
     37 H           3.3021   -1.7415   -4.4186 H       1  UNL11       0.0268
     38 H           1.3081   -1.5902   -6.6497 H       1  UNL11       0.0269
     39 H           2.4113   -2.9098   -6.2129 H       1  UNL11       0.0269
     40 H           0.3890   -3.9678   -5.9163 H       1  UNL11       0.0316
     41 H          -0.4509   -2.4676   -5.4625 H       1  UNL11       0.0316
     42 H          -4.6587    1.0527   -3.3058 H       1  UNL11       0.0626
     43 H          -3.5936    2.5957   -4.8604 H       1  UNL11       0.0618
     44 H          -1.4584    3.6648   -4.2916 H       1  UNL11       0.0618
     45 H          -0.3640    3.1804   -2.1210 H       1  UNL11       0.0618
     46 H          -1.4191    1.6562   -0.5889 H       1  UNL11       0.0626
@<TRIPOS>BOND
     1     1     2    2
     2     2     3   am
     3     2    21    1
     4     3     4    1
     5     3    27    1
     6     4     5    2
     7     5     6    1
     8     5    28    1
     9     6     7    1
    10     6    29    1
    11     6    30    1
    12     7     8    1
    13     7    20    2
    14     8     9    1
    15     8    31    1
    16     8    32    1
    17     9    10    2
    18    10    11    1
    19    11    12   am
    20    11    33    1
    21    12    13    2
    22    12    14    1
    23    14    15    2
    24    15    16    1
    25    15     9    1
    26    16    17    1
    27    16    34    1
    28    16    35    1
    29    17    18    1
    30    17    36    1
    31    17    37    1
    32    18    19    1
    33    18    38    1
    34    18    39    1
    35    19    14    1
    36    19    40    1
    37    19    41    1
    38    20     4    1
    39    21    22   ar
    40    22    23   ar
    41    22    42    1
    42    23    24   ar
    43    23    43    1
    44    24    25   ar
    45    24    44    1
    46    25    26   ar
    47    25    45    1
    48    26    21   ar
    49    26    46    1
@<TRIPOS>MOLECULE
*****
 46 49 0 0 0
SMALL
GASTEIGER

@<TRIPOS>ATOM
      1 O          -5.2754   -0.2275    0.6345 O.2     1  UNL11      -0.2418
      2 C          -4.0516   -0.1978    0.9850 C.2     1  UNL11       0.3328
      3 N          -3.0897   -0.5228    0.0266 N.am    1  UNL11      -0.1668
      4 C          -1.6720   -0.5643    0.2212 C.2     1  UNL11       0.3148
      5 C          -0.9982    0.1651    1.0653 C.2     1  UNL11       0.0147
      6 C           0.4367   -0.1846    0.9533 C.3     1  UNL11       0.0359
      7 C           0.4583   -1.2237   -0.0847 C.2     1  UNL11       0.1408
      8 C           1.6559   -1.9591   -0.6199 C.3     1  UNL11       0.0581
      9 C           1.3792   -2.3100   -2.0381 C.2     1  UNL11       0.1183
     10 N           2.4106   -2.3986   -2.9307 N.2     1  UNL11      -0.0075
     11 N           2.2544   -2.7194   -4.1960 N.am    1  UNL11      -0.0358
     12 C           1.0149   -2.9777   -4.6518 C.2     1  UNL11       0.4340
     13 O           0.8454   -3.2851   -5.8522 O.2     1  UNL11      -0.2120
     14 C          -0.0701   -2.9067   -3.8079 C.2     1  UNL11       0.0740
     15 C           0.1250   -2.5663   -2.4812 C.2     1  UNL11      -0.0071
     16 C          -1.0986   -2.4898   -1.6598 C.3     1  UNL11      -0.0252
     17 C          -2.1659   -1.6780   -2.3757 C.3     1  UNL11      -0.0487
     18 C          -2.4718   -2.2288   -3.7393 C.3     1  UNL11      -0.0484
     19 C          -1.4299   -3.1766   -4.2757 C.3     1  UNL11      -0.0176
     20 N          -0.7583   -1.4048   -0.4692 N.2     1  UNL11      -0.0504
     21 C          -3.7091    0.1727    2.3663 C.ar    1  UNL11       0.0616
     22 C          -2.5067    0.8079    2.5997 C.ar    1  UNL11      -0.0474
     23 C          -2.1106    1.1885    3.8640 C.ar    1  UNL11      -0.0610
     24 C          -2.9377    0.9286    4.9321 C.ar    1  UNL11      -0.0617
     25 C          -4.1580    0.2904    4.7406 C.ar    1  UNL11      -0.0610
     26 C          -4.5034   -0.0678    3.4542 C.ar    1  UNL11      -0.0474
     27 H          -3.4411   -0.7649   -0.9501 H       1  UNL11       0.3016
     28 H          -1.3217    0.9255    1.7743 H       1  UNL11       0.0657
     29 H           0.9653    0.7548    0.6067 H       1  UNL11       0.0392
     30 H           0.8500   -0.5354    1.9262 H       1  UNL11       0.0392
     31 H           2.5637   -1.3760   -0.4804 H       1  UNL11       0.0413
     32 H           1.8011   -2.8924   -0.0054 H       1  UNL11       0.0413
     33 H           3.0390   -2.7863   -4.8721 H       1  UNL11       0.4828
     34 H          -1.4805   -3.5225   -1.4735 H       1  UNL11       0.0314
     35 H          -0.8711   -1.9912   -0.7130 H       1  UNL11       0.0314
     36 H          -3.0892   -1.7465   -1.7646 H       1  UNL11       0.0268
     37 H          -1.8519   -0.6229   -2.3800 H       1  UNL11       0.0268
     38 H          -3.4580   -2.7438   -3.7580 H       1  UNL11       0.0269
     39 H          -2.5537   -1.3851   -4.4546 H       1  UNL11       0.0269
     40 H          -1.4146   -3.1473   -5.4003 H       1  UNL11       0.0316
     41 H          -1.7249   -4.2271   -4.0220 H       1  UNL11       0.0316
     42 H          -1.8005    1.0444    1.7891 H       1  UNL11       0.0626
     43 H          -1.1746    1.6843    4.0542 H       1  UNL11       0.0618
     44 H          -2.6685    1.2092    5.9431 H       1  UNL11       0.0618
     45 H          -4.8357    0.0693    5.5589 H       1  UNL11       0.0618
     46 H          -5.4498   -0.5609    3.3207 H       1  UNL11       0.0626
@<TRIPOS>BOND
     1     1     2    2
     2     2     3   am
     3     2    21    1
     4     3     4    1
     5     3    27    1
     6     4     5    2
     7     5     6    1
     8     5    28    1
     9     6     7    1
    10     6    29    1
    11     6    30    1
    12     7     8    1
    13     7    20    2
    14     8     9    1
    15     8    31    1
    16     8    32    1
    17     9    10    2
    18    10    11    1
    19    11    12   am
    20    11    33    1
    21    12    13    2
    22    12    14    1
    23    14    15    2
    24    15    16    1
    25    15     9    1
    26    16    17    1
    27    16    34    1
    28    16    35    1
    29    17    18    1
    30    17    36    1
    31    17    37    1
    32    18    19    1
    33    18    38    1
    34    18    39    1
    35    19    14    1
    36    19    40    1
    37    19    41    1
    38    20     4    1
    39    21    22   ar
    40    22    23   ar
    41    22    42    1
    42    23    24   ar
    43    23    43    1
    44    24    25   ar
    45    24    44    1
    46    25    26   ar
    47    25    45    1
    48    26    21   ar
    49    26    46    1
@<TRIPOS>MOLECULE
*****
 46 49 0 0 0
SMALL
GASTEIGER

@<TRIPOS>ATOM
      1 O          -5.0893   -1.1191   -0.9116 O.2     1  UNL11      -0.2418
      2 C          -3.8304   -1.3040   -0.8625 C.2     1  UNL11       0.3328
      3 N          -3.0897   -0.5228    0.0266 N.am    1  UNL11      -0.1668
      4 C          -1.6720   -0.5643    0.2212 C.2     1  UNL11       0.3148
      5 C          -0.9982    0.1651    1.0653 C.2     1  UNL11       0.0147
      6 C           0.4367   -0.1846    0.9533 C.3     1  UNL11       0.0359
      7 C           0.4583   -1.2237   -0.0847 C.2     1  UNL11       0.1408
      8 C           1.6559   -1.9591   -0.6199 C.3     1  UNL11       0.0581
      9 C           1.1817   -2.9006   -1.6686 C.2     1  UNL11       0.1183
     10 N           2.0010   -3.2234   -2.7140 N.2     1  UNL11      -0.0075
     11 N           1.6660   -4.0590   -3.6719 N.am    1  UNL11      -0.0358
     12 C           0.4512   -4.6365   -3.6340 C.2     1  UNL11       0.4340
     13 O           0.1137   -5.4347   -4.5357 O.2     1  UNL11      -0.2120
     14 C          -0.4252   -4.3567   -2.6102 C.2     1  UNL11       0.0740
     15 C          -0.0450   -3.4729   -1.6159 C.2     1  UNL11      -0.0071
     16 C          -1.0592   -3.2147   -0.5754 C.3     1  UNL11      -0.0252
     17 C          -2.4063   -2.9156   -1.2130 C.3     1  UNL11      -0.0487
     18 C          -2.8517   -4.0181   -2.1310 C.3     1  UNL11      -0.0484
     19 C          -1.7544   -4.9646   -2.5449 C.3     1  UNL11      -0.0176
     20 N          -0.7583   -1.4048   -0.4692 N.2     1  UNL11      -0.0504
     21 C          -3.2193   -2.3193   -1.7333 C.ar    1  UNL11       0.0616
     22 C          -3.9712   -3.4193   -2.0918 C.ar    1  UNL11      -0.0474
     23 C          -3.4736   -4.4156   -2.9043 C.ar    1  UNL11      -0.0610
     24 C          -2.1852   -4.3148   -3.3759 C.ar    1  UNL11      -0.0617
     25 C          -1.3937   -3.2227   -3.0386 C.ar    1  UNL11      -0.0610
     26 C          -1.9431   -2.2558   -2.2227 C.ar    1  UNL11      -0.0474
     27 H          -3.6295    0.1764    0.6232 H       1  UNL11       0.3016
     28 H          -1.3217    0.9255    1.7743 H       1  UNL11       0.0657
     29 H           0.9653    0.7548    0.6067 H       1  UNL11       0.0392
     30 H           0.8500   -0.5354    1.9262 H       1  UNL11       0.0392
     31 H           2.4164   -1.2624   -0.9661 H       1  UNL11       0.0413
     32 H           2.1319   -2.5252    0.2302 H       1  UNL11       0.0413
     33 H           2.2898   -4.3029   -4.4649 H       1  UNL11       0.4828
     34 H          -1.1502   -4.1148    0.0794 H       1  UNL11       0.0314
     35 H          -0.7619   -2.3428    0.0145 H       1  UNL11       0.0314
     36 H          -3.1447   -2.8381   -0.3888 H       1  UNL11       0.0268
     37 H          -2.3477   -1.9282   -1.6960 H       1  UNL11       0.0268
     38 H          -3.6776   -4.6129   -1.6812 H       1  UNL11       0.0269
     39 H          -3.2678   -3.5667   -3.0548 H       1  UNL11       0.0269
     40 H          -1.9768   -5.4050   -3.5561 H       1  UNL11       0.0316
     41 H          -1.7449   -5.8417   -1.8481 H       1  UNL11       0.0316
     42 H          -5.0075   -3.5594   -1.7483 H       1  UNL11       0.0626
     43 H          -4.0536   -5.2764   -3.1884 H       1  UNL11       0.0618
     44 H          -1.7519   -5.0730   -4.0169 H       1  UNL11       0.0618
     45 H          -0.3737   -3.1099   -3.3918 H       1  UNL11       0.0618
     46 H          -1.3196   -1.4168   -1.9696 H       1  UNL11       0.0626
@<TRIPOS>BOND
     1     1     2    2
     2     2     3   am
     3     2    21    1
     4     3     4    1
     5     3    27    1
     6     4     5    2
     7     5     6    1
     8     5    28    1
     9     6     7    1
    10     6    29    1
    11     6    30    1
    12     7     8    1
    13     7    20    2
    14     8     9    1
    15     8    31    1
    16     8    32    1
    17     9    10    2
    18    10    11    1
    19    11    12   am
    20    11    33    1
    21    12    13    2
    22    12    14    1
    23    14    15    2
    24    15    16    1
    25    15     9    1
    26    16    17    1
    27    16    34    1
    28    16    35    1
    29    17    18    1
    30    17    36    1
    31    17    37    1
    32    18    19    1
    33    18    38    1
    34    18    39    1
    35    19    14    1
    36    19    40    1
    37    19    41    1
    38    20     4    1
    39    21    22   ar
    40    22    23   ar
    41    22    42    1
    42    23    24   ar
    43    23    43    1
    44    24    25   ar
    45    24    44    1
    46    25    26   ar
    47    25    45    1
    48    26    21   ar
    49    26    46    1
@<TRIPOS>MOLECULE
*****
 46 49 0 0 0
SMALL
GASTEIGER

@<TRIPOS>ATOM
      1 O          -5.0893   -1.1191   -0.9116 O.2     1  UNL11      -0.2418
      2 C          -3.8304   -1.3040   -0.8625 C.2     1  UNL11       0.3328
      3 N          -3.0897   -0.5228    0.0266 N.am    1  UNL11      -0.1668
      4 C          -1.6720   -0.5643    0.2212 C.2     1  UNL11       0.3148
      5 C          -0.9982    0.1651    1.0653 C.2     1  UNL11       0.0147
      6 C           0.4367   -0.1846    0.9533 C.3     1  UNL11       0.0359
      7 C           0.4583   -1.2237   -0.0847 C.2     1  UNL11       0.1408
      8 C           1.6559   -1.9591   -0.6199 C.3     1  UNL11       0.0581
      9 C           1.1817   -2.9006   -1.6686 C.2     1  UNL11       0.1183
     10 N           2.0010   -3.2234   -2.7140 N.2     1  UNL11      -0.0075
     11 N           1.6660   -4.0590   -3.6719 N.am    1  UNL11      -0.0358
     12 C           0.4512   -4.6365   -3.6340 C.2     1  UNL11       0.4340
     13 O           0.1137   -5.4347   -4.5357 O.2     1  UNL11      -0.2120
     14 C          -0.4252   -4.3567   -2.6102 C.2     1  UNL11       0.0740
     15 C          -0.0450   -3.4729   -1.6159 C.2     1  UNL11      -0.0071
     16 C          -1.0592   -3.2147   -0.5754 C.3     1  UNL11      -0.0252
     17 C          -2.4063   -2.9156   -1.2130 C.3     1  UNL11      -0.0487
     18 C          -2.8517   -4.0181   -2.1310 C.3     1  UNL11      -0.0484
     19 C          -1.7544   -4.9646   -2.5449 C.3     1  UNL11      -0.0176
     20 N          -0.7583   -1.4048   -0.4692 N.2     1  UNL11      -0.0504
     21 C          -3.2193   -2.3193   -1.7333 C.ar    1  UNL11       0.0616
     22 C          -1.9246   -2.1224   -2.1677 C.ar    1  UNL11      -0.0474
     23 C          -1.2791   -3.0252   -2.9854 C.ar    1  UNL11      -0.0610
     24 C          -1.9435   -4.1618   -3.3848 C.ar    1  UNL11      -0.0617
     25 C          -3.2491   -4.3985   -2.9697 C.ar    1  UNL11      -0.0610
     26 C          -3.8457   -3.4615   -2.1521 C.ar    1  UNL11      -0.0474
     27 H          -3.6295    0.1764    0.6232 H       1  UNL11       0.3016
     28 H          -1.3217    0.9255    1.7743 H       1  UNL11       0.0657
     29 H           0.9653    0.7548    0.6067 H       1  UNL11       0.0392
     30 H           0.8500   -0.5354    1.9262 H       1  UNL11       0.0392
     31 H           2.4164   -1.2624   -0.9661 H       1  UNL11       0.0413
     32 H           2.1319   -2.5252    0.2302 H       1  UNL11       0.0413
     33 H           2.2898   -4.3029   -4.4649 H       1  UNL11       0.4828
     34 H          -1.1502   -4.1148    0.0794 H       1  UNL11       0.0314
     35 H          -0.7619   -2.3428    0.0145 H       1  UNL11       0.0314
     36 H          -3.1447   -2.8381   -0.3888 H       1  UNL11       0.0268
     37 H          -2.3477   -1.9282   -1.6960 H       1  UNL11       0.0268
     38 H          -3.6776   -4.6129   -1.6812 H       1  UNL11       0.0269
     39 H          -3.2678   -3.5667   -3.0548 H       1  UNL11       0.0269
     40 H          -1.9768   -5.4050   -3.5561 H       1  UNL11       0.0316
     41 H          -1.7449   -5.8417   -1.8481 H       1  UNL11       0.0316
     42 H          -1.3388   -1.2346   -1.8844 H       1  UNL11       0.0626
     43 H          -0.2697   -2.8789   -3.3284 H       1  UNL11       0.0618
     44 H          -1.4768   -4.8990   -4.0268 H       1  UNL11       0.0618
     45 H          -3.8039   -5.2835   -3.2647 H       1  UNL11       0.0618
     46 H          -4.8558   -3.6573   -1.8389 H       1  UNL11       0.0626
@<TRIPOS>BOND
     1     1     2    2
     2     2     3   am
     3     2    21    1
     4     3     4    1
     5     3    27    1
     6     4     5    2
     7     5     6    1
     8     5    28    1
     9     6     7    1
    10     6    29    1
    11     6    30    1
    12     7     8    1
    13     7    20    2
    14     8     9    1
    15     8    31    1
    16     8    32    1
    17     9    10    2
    18    10    11    1
    19    11    12   am
    20    11    33    1
    21    12    13    2
    22    12    14    1
    23    14    15    2
    24    15    16    1
    25    15     9    1
    26    16    17    1
    27    16    34    1
    28    16    35    1
    29    17    18    1
    30    17    36    1
    31    17    37    1
    32    18    19    1
    33    18    38    1
    34    18    39    1
    35    19    14    1
    36    19    40    1
    37    19    41    1
    38    20     4    1
    39    21    22   ar
    40    22    23   ar
    41    22    42    1
    42    23    24   ar
    43    23    43    1
    44    24    25   ar
    45    24    44    1
    46    25    26   ar
    47    25    45    1
    48    26    21   ar
    49    26    46    1
@<TRIPOS>MOLECULE
*****
 46 49 0 0 0
SMALL
GASTEIGER

@<TRIPOS>ATOM
      1 O          -3.2017   -2.1459   -1.5818 O.2     1  UNL11      -0.2418
      2 C          -3.8304   -1.3040   -0.8625 C.2     1  UNL11       0.3328
      3 N          -3.0897   -0.5228    0.0266 N.am    1  UNL11      -0.1668
      4 C          -1.6720   -0.5643    0.2212 C.2     1  UNL11       0.3148
      5 C          -0.9982    0.1651    1.0653 C.2     1  UNL11       0.0147
      6 C           0.4367   -0.1846    0.9533 C.3     1  UNL11       0.0359
      7 C           0.4583   -1.2237   -0.0847 C.2     1  UNL11       0.1408
      8 C           1.6559   -1.9591   -0.6199 C.3     1  UNL11       0.0581
      9 C           2.8585   -1.4512    0.0921 C.2     1  UNL11       0.1183
     10 N           4.0934   -1.9481   -0.2185 N.2     1  UNL11      -0.0075
     11 N           5.2069   -1.5420    0.3502 N.am    1  UNL11      -0.0358
     12 C           5.1423   -0.5840    1.2929 C.2     1  UNL11       0.4340
     13 O           6.1904   -0.1837    1.8455 O.2     1  UNL11      -0.2120
     14 C           3.9314   -0.0392    1.6553 C.2     1  UNL11       0.0740
     15 C           2.7760   -0.4866    1.0395 C.2     1  UNL11      -0.0071
     16 C           1.5241    0.1363    1.5113 C.3     1  UNL11      -0.0252
     17 C           1.4759    0.1407    3.0307 C.3     1  UNL11      -0.0487
     18 C           2.6715    0.8248    3.6298 C.3     1  UNL11      -0.0484
     19 C           3.8290    0.9996    2.6806 C.3     1  UNL11      -0.0176
     20 N          -0.7583   -1.4048   -0.4692 N.2     1  UNL11      -0.0504
     21 C          -5.2905   -1.1928   -0.9977 C.ar    1  UNL11       0.0616
     22 C          -5.8631   -1.4799   -2.2197 C.ar    1  UNL11      -0.0474
     23 C          -7.2232   -1.4003   -2.4301 C.ar    1  UNL11      -0.0610
     24 C          -8.0412   -1.0224   -1.3905 C.ar    1  UNL11      -0.0617
     25 C          -7.5047   -0.7244   -0.1430 C.ar    1  UNL11      -0.0610
     26 C          -6.1374   -0.8209    0.0106 C.ar    1  UNL11      -0.0474
     27 H          -3.6295    0.1764    0.6232 H       1  UNL11       0.3016
     28 H          -1.3217    0.9255    1.7743 H       1  UNL11       0.0657
     29 H           0.9653    0.7548    0.6067 H       1  UNL11       0.0392
     30 H           0.8500   -0.5354    1.9262 H       1  UNL11       0.0392
     31 H           1.5188   -3.0353   -0.5386 H       1  UNL11       0.0413
     32 H           1.7351   -1.7490   -1.7241 H       1  UNL11       0.0413
     33 H           6.1437   -1.9206    0.1127 H       1  UNL11       0.4828
     34 H           1.4727    1.1866    1.1354 H       1  UNL11       0.0314
     35 H           0.6699   -0.4413    1.1463 H       1  UNL11       0.0314
     36 H           0.5721    0.7129    3.3244 H       1  UNL11       0.0268
     37 H           1.3351   -0.8956    3.3743 H       1  UNL11       0.0268
     38 H           2.4038    1.8219    4.0449 H       1  UNL11       0.0269
     39 H           3.0335    0.2232    4.4885 H       1  UNL11       0.0269
     40 H           4.8014    1.0160    3.2462 H       1  UNL11       0.0316
     41 H           3.7608    2.0101    2.2019 H       1  UNL11       0.0316
     42 H          -5.2648   -1.7876   -3.0908 H       1  UNL11       0.0626
     43 H          -7.6775   -1.6226   -3.3800 H       1  UNL11       0.0618
     44 H          -9.1152   -0.9461   -1.5090 H       1  UNL11       0.0618
     45 H          -8.1189   -0.4231    0.6995 H       1  UNL11       0.0618
     46 H          -5.7360   -0.5872    0.9807 H       1  UNL11       0.0626
@<TRIPOS>BOND
     1     1     2    2
     2     2     3   am
     3     2    21    1
     4     3     4    1
     5     3    27    1
     6     4     5    2
     7     5     6    1
     8     5    28    1
     9     6     7    1
    10     6    29    1
    11     6    30    1
    12     7     8    1
    13     7    20    2
    14     8     9    1
    15     8    31    1
    16     8    32    1
    17     9    10    2
    18    10    11    1
    19    11    12   am
    20    11    33    1
    21    12    13    2
    22    12    14    1
    23    14    15    2
    24    15    16    1
    25    15     9    1
    26    16    17    1
    27    16    34    1
    28    16    35    1
    29    17    18    1
    30    17    36    1
    31    17    37    1
    32    18    19    1
    33    18    38    1
    34    18    39    1
    35    19    14    1
    36    19    40    1
    37    19    41    1
    38    20     4    1
    39    21    22   ar
    40    22    23   ar
    41    22    42    1
    42    23    24   ar
    43    23    43    1
    44    24    25   ar
    45    24    44    1
    46    25    26   ar
    47    25    45    1
    48    26    21   ar
    49    26    46    1
@<TRIPOS>MOLECULE
*****
 46 49 0 0 0
SMALL
GASTEIGER

@<TRIPOS>ATOM
      1 O          -5.0893   -1.1191   -0.9116 O.2     1  UNL11      -0.2418
      2 C          -3.8304   -1.3040   -0.8625 C.2     1  UNL11       0.3328
      3 N          -3.0897   -0.5228    0.0266 N.am    1  UNL11      -0.1668
      4 C          -1.6720   -0.5643    0.2212 C.2     1  UNL11       0.3148
      5 C          -0.9982    0.1651    1.0653 C.2     1  UNL11       0.0147
      6 C           0.4367   -0.1846    0.9533 C.3     1  UNL11       0.0359
      7 C           0.4583   -1.2237   -0.0847 C.2     1  UNL11       0.1408
      8 C           1.6559   -1.9591   -0.6199 C.3     1  UNL11       0.0581
      9 C           1.8464   -3.1815    0.2050 C.2     1  UNL11       0.1183
     10 N           2.6417   -3.1356    1.3157 N.2     1  UNL11      -0.0075
     11 N           2.8487   -4.1645    2.1074 N.am    1  UNL11      -0.0358
     12 C           2.2504   -5.3351    1.8201 C.2     1  UNL11       0.4340
     13 O           2.4344   -6.3257    2.5611 O.2     1  UNL11      -0.2120
     14 C           1.4364   -5.4528    0.7165 C.2     1  UNL11       0.0740
     15 C           1.2373   -4.3527   -0.0986 C.2     1  UNL11      -0.0071
     16 C           0.3711   -4.5811   -1.2713 C.3     1  UNL11      -0.0252
     17 C           0.7916   -5.8469   -2.0005 C.3     1  UNL11      -0.0487
     18 C           0.7907   -7.0451   -1.0946 C.3     1  UNL11      -0.0484
     19 C           0.7770   -6.7137    0.3755 C.3     1  UNL11      -0.0176
     20 N          -0.7583   -1.4048   -0.4692 N.2     1  UNL11      -0.0504
     21 C          -3.2193   -2.3193   -1.7333 C.ar    1  UNL11       0.0616
     22 C          -3.8164   -2.5928   -2.9467 C.ar    1  UNL11      -0.0474
     23 C          -3.3076   -3.5295   -3.8209 C.ar    1  UNL11      -0.0610
     24 C          -2.1669   -4.2172   -3.4769 C.ar    1  UNL11      -0.0617
     25 C          -1.5340   -3.9719   -2.2635 C.ar    1  UNL11      -0.0610
     26 C          -2.0869   -3.0241   -1.4279 C.ar    1  UNL11      -0.0474
     27 H          -3.6295    0.1764    0.6232 H       1  UNL11       0.3016
     28 H          -1.3217    0.9255    1.7743 H       1  UNL11       0.0657
     29 H           0.9653    0.7548    0.6067 H       1  UNL11       0.0392
     30 H           0.8500   -0.5354    1.9262 H       1  UNL11       0.0392
     31 H           1.5450   -2.1594   -1.6834 H       1  UNL11       0.0413
     32 H           2.5532   -1.2831   -0.5336 H       1  UNL11       0.0413
     33 H           3.4529   -4.1275    2.9505 H       1  UNL11       0.4828
     34 H          -0.6876   -4.6833   -0.9310 H       1  UNL11       0.0314
     35 H           0.4689   -3.7413   -1.9654 H       1  UNL11       0.0314
     36 H           0.0440   -6.0231   -2.8009 H       1  UNL11       0.0268
     37 H           1.7592   -5.6576   -2.4903 H       1  UNL11       0.0268
     38 H          -0.0688   -7.7178   -1.3111 H       1  UNL11       0.0269
     39 H           1.7040   -7.6425   -1.2924 H       1  UNL11       0.0269
     40 H           1.2776   -7.5298    0.9665 H       1  UNL11       0.0316
     41 H          -0.2824   -6.7070    0.7398 H       1  UNL11       0.0316
     42 H          -4.7301   -2.0779   -3.2808 H       1  UNL11       0.0626
     43 H          -3.7673   -3.7485   -4.7689 H       1  UNL11       0.0618
     44 H          -1.7309   -4.9620   -4.1317 H       1  UNL11       0.0618
     45 H          -0.6331   -4.4950   -1.9590 H       1  UNL11       0.0618
     46 H          -1.5872   -2.8448   -0.4926 H       1  UNL11       0.0626
@<TRIPOS>BOND
     1     1     2    2
     2     2     3   am
     3     2    21    1
     4     3     4    1
     5     3    27    1
     6     4     5    2
     7     5     6    1
     8     5    28    1
     9     6     7    1
    10     6    29    1
    11     6    30    1
    12     7     8    1
    13     7    20    2
    14     8     9    1
    15     8    31    1
    16     8    32    1
    17     9    10    2
    18    10    11    1
    19    11    12   am
    20    11    33    1
    21    12    13    2
    22    12    14    1
    23    14    15    2
    24    15    16    1
    25    15     9    1
    26    16    17    1
    27    16    34    1
    28    16    35    1
    29    17    18    1
    30    17    36    1
    31    17    37    1
    32    18    19    1
    33    18    38    1
    34    18    39    1
    35    19    14    1
    36    19    40    1
    37    19    41    1
    38    20     4    1
    39    21    22   ar
    40    22    23   ar
    41    22    42    1
    42    23    24   ar
    43    23    43    1
    44    24    25   ar
    45    24    44    1
    46    25    26   ar
    47    25    45    1
    48    26    21   ar
    49    26    46    1
@<TRIPOS>MOLECULE
*****
 46 49 0 0 0
SMALL
GASTEIGER

@<TRIPOS>ATOM
      1 O          -3.2219    1.6673   -0.6216 O.2     1  UNL11      -0.2418
      2 C          -3.8405    0.5793   -0.3870 C.2     1  UNL11       0.3328
      3 N          -3.0897   -0.5228    0.0266 N.am    1  UNL11      -0.1668
      4 C          -1.6720   -0.5643    0.2212 C.2     1  UNL11       0.3148
      5 C          -0.9982    0.1651    1.0653 C.2     1  UNL11       0.0147
      6 C           0.4367   -0.1846    0.9533 C.3     1  UNL11       0.0359
      7 C           0.4583   -1.2237   -0.0847 C.2     1  UNL11       0.1408
      8 C           1.6559   -1.9591   -0.6199 C.3     1  UNL11       0.0581
      9 C           2.5916   -0.9534   -1.1892 C.2     1  UNL11       0.1183
     10 N           2.1029    0.2107   -1.7129 N.2     1  UNL11      -0.0075
     11 N           2.8614    1.1576   -2.2190 N.am    1  UNL11      -0.0358
     12 C           4.1958    0.9845   -2.2288 C.2     1  UNL11       0.4340
     13 O           4.9348    1.8738   -2.7056 O.2     1  UNL11      -0.2120
     14 C           4.7563   -0.1642   -1.7180 C.2     1  UNL11       0.0740
     15 C           3.9328   -1.1435   -1.1919 C.2     1  UNL11      -0.0071
     16 C           4.6211   -2.3495   -0.6922 C.3     1  UNL11      -0.0252
     17 C           5.6280   -2.8462   -1.7169 C.3     1  UNL11      -0.0487
     18 C           6.6198   -1.7826   -2.0930 C.3     1  UNL11      -0.0484
     19 C           6.2030   -0.3832   -1.7198 C.3     1  UNL11      -0.0176
     20 N          -0.7583   -1.4048   -0.4692 N.2     1  UNL11      -0.0504
     21 C          -5.3001    0.5316   -0.5599 C.ar    1  UNL11       0.0616
     22 C          -5.8799    1.3575   -1.5009 C.ar    1  UNL11      -0.0474
     23 C          -7.2400    1.3740   -1.7251 C.ar    1  UNL11      -0.0610
     24 C          -8.0506    0.5414   -0.9888 C.ar    1  UNL11      -0.0617
     25 C          -7.5069   -0.3065   -0.0305 C.ar    1  UNL11      -0.0610
     26 C          -6.1399   -0.2814    0.1515 C.ar    1  UNL11      -0.0474
     27 H          -3.6208   -1.4269    0.2178 H       1  UNL11       0.3016
     28 H          -1.3217    0.9255    1.7743 H       1  UNL11       0.0657
     29 H           0.9653    0.7548    0.6067 H       1  UNL11       0.0392
     30 H           0.8500   -0.5354    1.9262 H       1  UNL11       0.0392
     31 H           2.1006   -2.5878    0.1485 H       1  UNL11       0.0413
     32 H           1.3055   -2.6682   -1.4224 H       1  UNL11       0.0413
     33 H           2.4883    2.0410   -2.6161 H       1  UNL11       0.4828
     34 H           5.1512   -2.1016    0.2590 H       1  UNL11       0.0314
     35 H           3.8881   -3.1438   -0.5239 H       1  UNL11       0.0314
     36 H           6.1852   -3.6814   -1.2451 H       1  UNL11       0.0268
     37 H           5.0733   -3.2625   -2.5718 H       1  UNL11       0.0268
     38 H           7.6192   -1.9824   -1.6465 H       1  UNL11       0.0269
     39 H           6.7661   -1.8041   -3.1923 H       1  UNL11       0.0269
     40 H           6.6590    0.3638   -2.4267 H       1  UNL11       0.0316
     41 H           6.6342   -0.1274   -0.7179 H       1  UNL11       0.0316
     42 H          -5.2875    2.0466   -2.1220 H       1  UNL11       0.0626
     43 H          -7.6997    2.0151   -2.4569 H       1  UNL11       0.0618
     44 H          -9.1244    0.5200   -1.1302 H       1  UNL11       0.0618
     45 H          -8.1153   -0.9765    0.5686 H       1  UNL11       0.0618
     46 H          -5.7329   -0.9422    0.8961 H       1  UNL11       0.0626
@<TRIPOS>BOND
     1     1     2    2
     2     2     3   am
     3     2    21    1
     4     3     4    1
     5     3    27    1
     6     4     5    2
     7     5     6    1
     8     5    28    1
     9     6     7    1
    10     6    29    1
    11     6    30    1
    12     7     8    1
    13     7    20    2
    14     8     9    1
    15     8    31    1
    16     8    32    1
    17     9    10    2
    18    10    11    1
    19    11    12   am
    20    11    33    1
    21    12    13    2
    22    12    14    1
    23    14    15    2
    24    15    16    1
    25    15     9    1
    26    16    17    1
    27    16    34    1
    28    16    35    1
    29    17    18    1
    30    17    36    1
    31    17    37    1
    32    18    19    1
    33    18    38    1
    34    18    39    1
    35    19    14    1
    36    19    40    1
    37    19    41    1
    38    20     4    1
    39    21    22   ar
    40    22    23   ar
    41    22    42    1
    42    23    24   ar
    43    23    43    1
    44    24    25   ar
    45    24    44    1
    46    25    26   ar
    47    25    45    1
    48    26    21   ar
    49    26    46    1
@<TRIPOS>MOLECULE
*****
 46 49 0 0 0
SMALL
GASTEIGER

@<TRIPOS>ATOM
      1 O          -3.2219    1.6673   -0.6216 O.2     1  UNL11      -0.2418
      2 C          -3.8405    0.5793   -0.3870 C.2     1  UNL11       0.3328
      3 N          -3.0897   -0.5228    0.0266 N.am    1  UNL11      -0.1668
      4 C          -1.6720   -0.5643    0.2212 C.2     1  UNL11       0.3148
      5 C          -0.9982    0.1651    1.0653 C.2     1  UNL11       0.0147
      6 C           0.4367   -0.1846    0.9533 C.3     1  UNL11       0.0359
      7 C           0.4583   -1.2237   -0.0847 C.2     1  UNL11       0.1408
      8 C           1.6559   -1.9591   -0.6199 C.3     1  UNL11       0.0581
      9 C           1.4543   -3.4092   -0.3597 C.2     1  UNL11       0.1183
     10 N           0.8296   -4.1875   -1.2937 N.2     1  UNL11      -0.0075
     11 N           0.6275   -5.4785   -1.1498 N.am    1  UNL11      -0.0358
     12 C           1.0542   -6.0808   -0.0246 C.2     1  UNL11       0.4340
     13 O           0.8718   -7.3082    0.1311 O.2     1  UNL11      -0.2120
     14 C           1.6908   -5.3574    0.9582 C.2     1  UNL11       0.0740
     15 C           1.8894   -4.0000    0.7789 C.2     1  UNL11      -0.0071
     16 C           2.5562   -3.3038    1.8963 C.3     1  UNL11      -0.0252
     17 C           1.9084   -3.6841    3.2179 C.3     1  UNL11      -0.0487
     18 C           1.9092   -5.1701    3.4380 C.3     1  UNL11      -0.0484
     19 C           2.1608   -5.9833    2.1944 C.3     1  UNL11      -0.0176
     20 N          -0.7583   -1.4048   -0.4692 N.2     1  UNL11      -0.0504
     21 C          -5.3001    0.5316   -0.5599 C.ar    1  UNL11       0.0616
     22 C          -5.9527    1.6749   -0.9730 C.ar    1  UNL11      -0.0474
     23 C          -7.3181    1.7143   -1.1591 C.ar    1  UNL11      -0.0610
     24 C          -8.0593    0.5789   -0.9265 C.ar    1  UNL11      -0.0617
     25 C          -7.4408   -0.5942   -0.5091 C.ar    1  UNL11      -0.0610
     26 C          -6.0722   -0.5763   -0.3392 C.ar    1  UNL11      -0.0474
     27 H          -3.6208   -1.4269    0.2178 H       1  UNL11       0.3016
     28 H          -1.3217    0.9255    1.7743 H       1  UNL11       0.0657
     29 H           0.9653    0.7548    0.6067 H       1  UNL11       0.0392
     30 H           0.8500   -0.5354    1.9262 H       1  UNL11       0.0392
     31 H           1.8220   -1.7195   -1.6680 H       1  UNL11       0.0413
     32 H           2.5707   -1.5862   -0.0780 H       1  UNL11       0.0413
     33 H           0.1530   -6.0678   -1.8603 H       1  UNL11       0.4828
     34 H           3.6352   -3.5910    1.9157 H       1  UNL11       0.0314
     35 H           2.4519   -2.2227    1.7660 H       1  UNL11       0.0314
     36 H           2.5155   -3.2194    4.0217 H       1  UNL11       0.0268
     37 H           0.9077   -3.2272    3.2556 H       1  UNL11       0.0268
     38 H           2.6551   -5.4666    4.2086 H       1  UNL11       0.0269
     39 H           0.9197   -5.4718    3.8382 H       1  UNL11       0.0269
     40 H           1.6641   -6.9895    2.2762 H       1  UNL11       0.0316
     41 H           3.2552   -6.2110    2.1208 H       1  UNL11       0.0316
     42 H          -5.4181    2.6154   -1.1758 H       1  UNL11       0.0626
     43 H          -7.8344    2.6019   -1.4811 H       1  UNL11       0.0618
     44 H          -9.1342    0.5627   -1.0594 H       1  UNL11       0.0618
     45 H          -7.9931   -1.5083   -0.3161 H       1  UNL11       0.0618
     46 H          -5.6070   -1.4906   -0.0158 H       1  UNL11       0.0626
@<TRIPOS>BOND
     1     1     2    2
     2     2     3   am
     3     2    21    1
     4     3     4    1
     5     3    27    1
     6     4     5    2
     7     5     6    1
     8     5    28    1
     9     6     7    1
    10     6    29    1
    11     6    30    1
    12     7     8    1
    13     7    20    2
    14     8     9    1
    15     8    31    1
    16     8    32    1
    17     9    10    2
    18    10    11    1
    19    11    12   am
    20    11    33    1
    21    12    13    2
    22    12    14    1
    23    14    15    2
    24    15    16    1
    25    15     9    1
    26    16    17    1
    27    16    34    1
    28    16    35    1
    29    17    18    1
    30    17    36    1
    31    17    37    1
    32    18    19    1
    33    18    38    1
    34    18    39    1
    35    19    14    1
    36    19    40    1
    37    19    41    1
    38    20     4    1
    39    21    22   ar
    40    22    23   ar
    41    22    42    1
    42    23    24   ar
    43    23    43    1
    44    24    25   ar
    45    24    44    1
    46    25    26   ar
    47    25    45    1
    48    26    21   ar
    49    26    46    1
@<TRIPOS>MOLECULE
*****
 46 49 0 0 0
SMALL
GASTEIGER

@<TRIPOS>ATOM
      1 O          -5.0520    0.1991   -0.9020 O.2     1  UNL11      -0.2418
      2 C          -3.7819    0.2860   -0.8768 C.2     1  UNL11       0.3328
      3 N          -3.0897   -0.5228    0.0266 N.am    1  UNL11      -0.1668
      4 C          -1.6720   -0.5643    0.2212 C.2     1  UNL11       0.3148
      5 C          -0.9982    0.1651    1.0653 C.2     1  UNL11       0.0147
      6 C           0.4367   -0.1846    0.9533 C.3     1  UNL11       0.0359
      7 C           0.4583   -1.2237   -0.0847 C.2     1  UNL11       0.1408
      8 C           1.6559   -1.9591   -0.6199 C.3     1  UNL11       0.0581
      9 C           2.8585   -1.4512    0.0921 C.2     1  UNL11       0.1183
     10 N           3.9272   -2.2782    0.2976 N.2     1  UNL11      -0.0075
     11 N           5.0332   -1.9039    0.9016 N.am    1  UNL11      -0.0358
     12 C           5.1327   -0.6383    1.3479 C.2     1  UNL11       0.4340
     13 O           6.1769   -0.2626    1.9247 O.2     1  UNL11      -0.2120
     14 C           4.0942    0.2484    1.1751 C.2     1  UNL11       0.0740
     15 C           2.9423   -0.1741    0.5358 C.2     1  UNL11      -0.0071
     16 C           1.8740    0.8375    0.4201 C.3     1  UNL11      -0.0252
     17 C           1.6461    1.5209    1.7587 C.3     1  UNL11      -0.0487
     18 C           2.9062    2.1344    2.2993 C.3     1  UNL11      -0.0484
     19 C           4.1709    1.6287    1.6543 C.3     1  UNL11      -0.0176
     20 N          -0.7583   -1.4048   -0.4692 N.2     1  UNL11      -0.0504
     21 C          -3.1080    1.2227   -1.7885 C.ar    1  UNL11       0.0616
     22 C          -1.8401    0.9113   -2.2347 C.ar    1  UNL11      -0.0474
     23 C          -1.1400    1.7346   -3.0904 C.ar    1  UNL11      -0.0610
     24 C          -1.7201    2.9069   -3.5166 C.ar    1  UNL11      -0.0617
     25 C          -2.9962    3.2583   -3.0909 C.ar    1  UNL11      -0.0610
     26 C          -3.6503    2.3969   -2.2351 C.ar    1  UNL11      -0.0474
     27 H          -3.6708   -1.1774    0.6348 H       1  UNL11       0.3016
     28 H          -1.3217    0.9255    1.7743 H       1  UNL11       0.0657
     29 H           0.9653    0.7548    0.6067 H       1  UNL11       0.0392
     30 H           0.8500   -0.5354    1.9262 H       1  UNL11       0.0392
     31 H           1.5188   -3.0353   -0.5386 H       1  UNL11       0.0413
     32 H           1.7351   -1.7490   -1.7241 H       1  UNL11       0.0413
     33 H           5.8438   -2.5335    1.0565 H       1  UNL11       0.4828
     34 H           2.1716    1.5998   -0.3398 H       1  UNL11       0.0314
     35 H           0.9406    0.3494    0.1250 H       1  UNL11       0.0314
     36 H           0.9156    2.3376    1.5851 H       1  UNL11       0.0268
     37 H           1.1737    0.7965    2.4398 H       1  UNL11       0.0268
     38 H           2.8874    3.2437    2.2138 H       1  UNL11       0.0269
     39 H           2.9741    1.9123    3.3839 H       1  UNL11       0.0269
     40 H           5.0315    1.6906    2.3763 H       1  UNL11       0.0316
     41 H           4.4535    2.3144    0.8147 H       1  UNL11       0.0316
     42 H          -1.3207   -0.0105   -1.9312 H       1  UNL11       0.0626
     43 H          -0.1509    1.4989   -3.4428 H       1  UNL11       0.0618
     44 H          -1.2082    3.5848   -4.1888 H       1  UNL11       0.0618
     45 H          -3.4849    4.1746   -3.4062 H       1  UNL11       0.0618
     46 H          -4.6364    2.6813   -1.9136 H       1  UNL11       0.0626
@<TRIPOS>BOND
     1     1     2    2
     2     2     3   am
     3     2    21    1
     4     3     4    1
     5     3    27    1
     6     4     5    2
     7     5     6    1
     8     5    28    1
     9     6     7    1
    10     6    29    1
    11     6    30    1
    12     7     8    1
    13     7    20    2
    14     8     9    1
    15     8    31    1
    16     8    32    1
    17     9    10    2
    18    10    11    1
    19    11    12   am
    20    11    33    1
    21    12    13    2
    22    12    14    1
    23    14    15    2
    24    15    16    1
    25    15     9    1
    26    16    17    1
    27    16    34    1
    28    16    35    1
    29    17    18    1
    30    17    36    1
    31    17    37    1
    32    18    19    1
    33    18    38    1
    34    18    39    1
    35    19    14    1
    36    19    40    1
    37    19    41    1
    38    20     4    1
    39    21    22   ar
    40    22    23   ar
    41    22    42    1
    42    23    24   ar
    43    23    43    1
    44    24    25   ar
    45    24    44    1
    46    25    26   ar
    47    25    45    1
    48    26    21   ar
    49    26    46    1
@<TRIPOS>MOLECULE
*****
 46 49 0 0 0
SMALL
GASTEIGER

@<TRIPOS>ATOM
      1 O          -5.2317    0.1865    0.4044 O.2     1  UNL11      -0.2418
      2 C          -3.9979    0.2970    0.6993 C.2     1  UNL11       0.3328
      3 N          -3.0897   -0.5228    0.0266 N.am    1  UNL11      -0.1668
      4 C          -1.6720   -0.5643    0.2212 C.2     1  UNL11       0.3148
      5 C          -0.9982    0.1651    1.0653 C.2     1  UNL11       0.0147
      6 C           0.4367   -0.1846    0.9533 C.3     1  UNL11       0.0359
      7 C           0.4583   -1.2237   -0.0847 C.2     1  UNL11       0.1408
      8 C           1.6559   -1.9591   -0.6199 C.3     1  UNL11       0.0581
      9 C           2.6658   -2.0391    0.4686 C.2     1  UNL11       0.1183
     10 N           2.7235   -1.0561    1.4166 N.2     1  UNL11      -0.0075
     11 N           3.5730   -1.0596    2.4198 N.am    1  UNL11      -0.0358
     12 C           4.4404   -2.0822    2.5322 C.2     1  UNL11       0.4340
     13 O           5.2563   -2.1042    3.4799 O.2     1  UNL11      -0.2120
     14 C           4.4381   -3.1062    1.6125 C.2     1  UNL11       0.0740
     15 C           3.5325   -3.0754    0.5670 C.2     1  UNL11      -0.0071
     16 C           3.6222   -4.2013   -0.3828 C.3     1  UNL11      -0.0252
     17 C           5.0668   -4.4293   -0.7973 C.3     1  UNL11      -0.0487
     18 C           5.9629   -4.6568    0.3866 C.3     1  UNL11      -0.0484
     19 C           5.3725   -4.2283    1.7053 C.3     1  UNL11      -0.0176
     20 N          -0.7583   -1.4048   -0.4692 N.2     1  UNL11      -0.0504
     21 C          -3.5886    1.2706    1.7226 C.ar    1  UNL11       0.0616
     22 C          -4.4745    1.5737    2.7360 C.ar    1  UNL11      -0.0474
     23 C          -4.1688    2.4748    3.7335 C.ar    1  UNL11      -0.0610
     24 C          -2.9411    3.0955    3.7226 C.ar    1  UNL11      -0.0617
     25 C          -2.0192    2.8185    2.7194 C.ar    1  UNL11      -0.0610
     26 C          -2.3783    1.9086    1.7471 C.ar    1  UNL11      -0.0474
     27 H          -3.4868   -1.1862   -0.7070 H       1  UNL11       0.3016
     28 H          -1.3217    0.9255    1.7743 H       1  UNL11       0.0657
     29 H           0.9653    0.7548    0.6067 H       1  UNL11       0.0392
     30 H           0.8500   -0.5354    1.9262 H       1  UNL11       0.0392
     31 H           1.3681   -2.9271   -1.0244 H       1  UNL11       0.0413
     32 H           2.0657   -1.3781   -1.4941 H       1  UNL11       0.0413
     33 H           3.6151   -0.3122    3.1388 H       1  UNL11       0.4828
     34 H           3.2258   -5.1246    0.1045 H       1  UNL11       0.0314
     35 H           3.0443   -3.9666   -1.2815 H       1  UNL11       0.0314
     36 H           5.0841   -5.3472   -1.4202 H       1  UNL11       0.0268
     37 H           5.3781   -3.5907   -1.4389 H       1  UNL11       0.0268
     38 H           6.2663   -5.7243    0.4678 H       1  UNL11       0.0269
     39 H           6.9006   -4.0828    0.2397 H       1  UNL11       0.0269
     40 H           6.1874   -3.9336    2.4229 H       1  UNL11       0.0316
     41 H           4.8736   -5.1083    2.1866 H       1  UNL11       0.0316
     42 H          -5.4716    1.1123    2.8018 H       1  UNL11       0.0626
     43 H          -4.8541    2.7165    4.5271 H       1  UNL11       0.0618
     44 H          -2.6570    3.8103    4.4854 H       1  UNL11       0.0618
     45 H          -1.0419    3.2887    2.6789 H       1  UNL11       0.0618
     46 H          -1.6558    1.7041    0.9772 H       1  UNL11       0.0626
@<TRIPOS>BOND
     1     1     2    2
     2     2     3   am
     3     2    21    1
     4     3     4    1
     5     3    27    1
     6     4     5    2
     7     5     6    1
     8     5    28    1
     9     6     7    1
    10     6    29    1
    11     6    30    1
    12     7     8    1
    13     7    20    2
    14     8     9    1
    15     8    31    1
    16     8    32    1
    17     9    10    2
    18    10    11    1
    19    11    12   am
    20    11    33    1
    21    12    13    2
    22    12    14    1
    23    14    15    2
    24    15    16    1
    25    15     9    1
    26    16    17    1
    27    16    34    1
    28    16    35    1
    29    17    18    1
    30    17    36    1
    31    17    37    1
    32    18    19    1
    33    18    38    1
    34    18    39    1
    35    19    14    1
    36    19    40    1
    37    19    41    1
    38    20     4    1
    39    21    22   ar
    40    22    23   ar
    41    22    42    1
    42    23    24   ar
    43    23    43    1
    44    24    25   ar
    45    24    44    1
    46    25    26   ar
    47    25    45    1
    48    26    21   ar
    49    26    46    1
@<TRIPOS>MOLECULE
*****
 46 49 0 0 0
SMALL
GASTEIGER

@<TRIPOS>ATOM
      1 O          -5.2317    0.1865    0.4044 O.2     1  UNL11      -0.2418
      2 C          -3.9979    0.2970    0.6993 C.2     1  UNL11       0.3328
      3 N          -3.0897   -0.5228    0.0266 N.am    1  UNL11      -0.1668
      4 C          -1.6720   -0.5643    0.2212 C.2     1  UNL11       0.3148
      5 C          -0.9982    0.1651    1.0653 C.2     1  UNL11       0.0147
      6 C           0.4367   -0.1846    0.9533 C.3     1  UNL11       0.0359
      7 C           0.4583   -1.2237   -0.0847 C.2     1  UNL11       0.1408
      8 C           1.6559   -1.9591   -0.6199 C.3     1  UNL11       0.0581
      9 C           2.2838   -2.6922    0.5112 C.2     1  UNL11       0.1183
     10 N           2.1864   -2.1961    1.7811 N.2     1  UNL11      -0.0075
     11 N           2.6970   -2.7898    2.8370 N.am    1  UNL11      -0.0358
     12 C           3.3553   -3.9520    2.6733 C.2     1  UNL11       0.4340
     13 O           3.8480   -4.5327    3.6654 O.2     1  UNL11      -0.2120
     14 C           3.4917   -4.5088    1.4220 C.2     1  UNL11       0.0740
     15 C           2.9438   -3.8610    0.3291 C.2     1  UNL11      -0.0071
     16 C           3.1632   -4.5190   -0.9735 C.3     1  UNL11      -0.0252
     17 C           4.6243   -4.9081   -1.1297 C.3     1  UNL11      -0.0487
     18 C           5.0975   -5.7823   -0.0035 C.3     1  UNL11      -0.0484
     19 C           4.2065   -5.7680    1.2119 C.3     1  UNL11      -0.0176
     20 N          -0.7583   -1.4048   -0.4692 N.2     1  UNL11      -0.0504
     21 C          -3.5886    1.2706    1.7226 C.ar    1  UNL11       0.0616
     22 C          -2.4720    0.9957    2.4850 C.ar    1  UNL11      -0.0474
     23 C          -2.0216    1.8552    3.4641 C.ar    1  UNL11      -0.0610
     24 C          -2.7045    3.0273    3.6929 C.ar    1  UNL11      -0.0617
     25 C          -3.8346    3.3426    2.9469 C.ar    1  UNL11      -0.0610
     26 C          -4.2400    2.4460    1.9804 C.ar    1  UNL11      -0.0474
     27 H          -3.4868   -1.1862   -0.7070 H       1  UNL11       0.3016
     28 H          -1.3217    0.9255    1.7743 H       1  UNL11       0.0657
     29 H           0.9653    0.7548    0.6067 H       1  UNL11       0.0392
     30 H           0.8500   -0.5354    1.9262 H       1  UNL11       0.0392
     31 H           1.3780   -2.5965   -1.4566 H       1  UNL11       0.0413
     32 H           2.3745   -1.2023   -1.0447 H       1  UNL11       0.0413
     33 H           2.6218   -2.4114    3.8006 H       1  UNL11       0.4828
     34 H           2.5268   -5.4348   -1.0335 H       1  UNL11       0.0314
     35 H           2.9088   -3.8248   -1.7796 H       1  UNL11       0.0314
     36 H           4.7058   -5.4896   -2.0709 H       1  UNL11       0.0268
     37 H           5.2144   -3.9879   -1.2595 H       1  UNL11       0.0268
     38 H           5.2248   -6.8373   -0.3335 H       1  UNL11       0.0269
     39 H           6.1024   -5.4387    0.3166 H       1  UNL11       0.0269
     40 H           4.8062   -5.9775    2.1406 H       1  UNL11       0.0316
     41 H           3.4804   -6.6183    1.1438 H       1  UNL11       0.0316
     42 H          -1.8819    0.0761    2.3518 H       1  UNL11       0.0626
     43 H          -1.1517    1.6481    4.0628 H       1  UNL11       0.0618
     44 H          -2.3878    3.7329    4.4514 H       1  UNL11       0.0618
     45 H          -4.3982    4.2575    3.0996 H       1  UNL11       0.0618
     46 H          -5.1157    2.7024    1.4112 H       1  UNL11       0.0626
@<TRIPOS>BOND
     1     1     2    2
     2     2     3   am
     3     2    21    1
     4     3     4    1
     5     3    27    1
     6     4     5    2
     7     5     6    1
     8     5    28    1
     9     6     7    1
    10     6    29    1
    11     6    30    1
    12     7     8    1
    13     7    20    2
    14     8     9    1
    15     8    31    1
    16     8    32    1
    17     9    10    2
    18    10    11    1
    19    11    12   am
    20    11    33    1
    21    12    13    2
    22    12    14    1
    23    14    15    2
    24    15    16    1
    25    15     9    1
    26    16    17    1
    27    16    34    1
    28    16    35    1
    29    17    18    1
    30    17    36    1
    31    17    37    1
    32    18    19    1
    33    18    38    1
    34    18    39    1
    35    19    14    1
    36    19    40    1
    37    19    41    1
    38    20     4    1
    39    21    22   ar
    40    22    23   ar
    41    22    42    1
    42    23    24   ar
    43    23    43    1
    44    24    25   ar
    45    24    44    1
    46    25    26   ar
    47    25    45    1
    48    26    21   ar
    49    26    46    1
@<TRIPOS>MOLECULE
*****
 46 49 0 0 0
SMALL
GASTEIGER

@<TRIPOS>ATOM
      1 O          -5.0520    0.1991   -0.9020 O.2     1  UNL11      -0.2418
      2 C          -3.7819    0.2860   -0.8768 C.2     1  UNL11       0.3328
      3 N          -3.0897   -0.5228    0.0266 N.am    1  UNL11      -0.1668
      4 C          -1.6720   -0.5643    0.2212 C.2     1  UNL11       0.3148
      5 C          -0.9982    0.1651    1.0653 C.2     1  UNL11       0.0147
      6 C           0.4367   -0.1846    0.9533 C.3     1  UNL11       0.0359
      7 C           0.4583   -1.2237   -0.0847 C.2     1  UNL11       0.1408
      8 C           1.6559   -1.9591   -0.6199 C.3     1  UNL11       0.0581
      9 C           2.8314   -1.0547   -0.5134 C.2     1  UNL11       0.1183
     10 N           3.5994   -1.0676    0.6172 N.2     1  UNL11      -0.0075
     11 N           4.6634   -0.3139    0.7847 N.am    1  UNL11      -0.0358
     12 C           5.0285    0.5223   -0.2044 C.2     1  UNL11       0.4340
     13 O           6.0379    1.2474   -0.0647 O.2     1  UNL11      -0.2120
     14 C           4.3004    0.5872   -1.3706 C.2     1  UNL11       0.0740
     15 C           3.1851   -0.2181   -1.5183 C.2     1  UNL11      -0.0071
     16 C           2.4534   -0.0606   -2.7902 C.3     1  UNL11      -0.0252
     17 C           2.2201    1.4119   -3.0869 C.3     1  UNL11      -0.0487
     18 C           3.5038    2.1917   -3.1093 C.3     1  UNL11      -0.0484
     19 C           4.6695    1.4902   -2.4611 C.3     1  UNL11      -0.0176
     20 N          -0.7583   -1.4048   -0.4692 N.2     1  UNL11      -0.0504
     21 C          -3.1080    1.2227   -1.7885 C.ar    1  UNL11       0.0616
     22 C          -3.7022    1.5044   -3.0015 C.ar    1  UNL11      -0.0474
     23 C          -3.1366    2.3708   -3.9125 C.ar    1  UNL11      -0.0610
     24 C          -1.9400    2.9771   -3.6071 C.ar    1  UNL11      -0.0617
     25 C          -1.3080    2.7206   -2.3956 C.ar    1  UNL11      -0.0610
     26 C          -1.9192    1.8455   -1.5221 C.ar    1  UNL11      -0.0474
     27 H          -3.6708   -1.1774    0.6348 H       1  UNL11       0.3016
     28 H          -1.3217    0.9255    1.7743 H       1  UNL11       0.0657
     29 H           0.9653    0.7548    0.6067 H       1  UNL11       0.0392
     30 H           0.8500   -0.5354    1.9262 H       1  UNL11       0.0392
     31 H           1.7863   -2.9113   -0.1102 H       1  UNL11       0.0413
     32 H           1.4575   -2.2202   -1.6979 H       1  UNL11       0.0413
     33 H           5.2453   -0.3253    1.6440 H       1  UNL11       0.4828
     34 H           3.0516   -0.5155   -3.6162 H       1  UNL11       0.0314
     35 H           1.4780   -0.5497   -2.7121 H       1  UNL11       0.0314
     36 H           1.7670    1.4707   -4.0978 H       1  UNL11       0.0268
     37 H           1.4770    1.7947   -2.3706 H       1  UNL11       0.0268
     38 H           3.7934    2.4684   -4.1475 H       1  UNL11       0.0269
     39 H           3.3493    3.1484   -2.5697 H       1  UNL11       0.0269
     40 H           5.3992    2.2407   -2.0486 H       1  UNL11       0.0316
     41 H           5.2450    0.9346   -3.2454 H       1  UNL11       0.0316
     42 H          -4.6587    1.0527   -3.3058 H       1  UNL11       0.0626
     43 H          -3.5936    2.5957   -4.8604 H       1  UNL11       0.0618
     44 H          -1.4584    3.6648   -4.2916 H       1  UNL11       0.0618
     45 H          -0.3640    3.1804   -2.1210 H       1  UNL11       0.0618
     46 H          -1.4191    1.6562   -0.5889 H       1  UNL11       0.0626
@<TRIPOS>BOND
     1     1     2    2
     2     2     3   am
     3     2    21    1
     4     3     4    1
     5     3    27    1
     6     4     5    2
     7     5     6    1
     8     5    28    1
     9     6     7    1
    10     6    29    1
    11     6    30    1
    12     7     8    1
    13     7    20    2
    14     8     9    1
    15     8    31    1
    16     8    32    1
    17     9    10    2
    18    10    11    1
    19    11    12   am
    20    11    33    1
    21    12    13    2
    22    12    14    1
    23    14    15    2
    24    15    16    1
    25    15     9    1
    26    16    17    1
    27    16    34    1
    28    16    35    1
    29    17    18    1
    30    17    36    1
    31    17    37    1
    32    18    19    1
    33    18    38    1
    34    18    39    1
    35    19    14    1
    36    19    40    1
    37    19    41    1
    38    20     4    1
    39    21    22   ar
    40    22    23   ar
    41    22    42    1
    42    23    24   ar
    43    23    43    1
    44    24    25   ar
    45    24    44    1
    46    25    26   ar
    47    25    45    1
    48    26    21   ar
    49    26    46    1
@<TRIPOS>MOLECULE
*****
 46 49 0 0 0
SMALL
GASTEIGER

@<TRIPOS>ATOM
      1 O          -3.6848   -1.0652    2.1681 O.2     1  UNL11      -0.2418
      2 C          -4.0691   -0.7713    0.9902 C.2     1  UNL11       0.3328
      3 N          -3.0897   -0.5228    0.0266 N.am    1  UNL11      -0.1668
      4 C          -1.6720   -0.5643    0.2212 C.2     1  UNL11       0.3148
      5 C          -0.9982    0.1651    1.0653 C.2     1  UNL11       0.0147
      6 C           0.4367   -0.1846    0.9533 C.3     1  UNL11       0.0359
      7 C           0.4583   -1.2237   -0.0847 C.2     1  UNL11       0.1408
      8 C           1.6559   -1.9591   -0.6199 C.3     1  UNL11       0.0581
      9 C           2.1812   -1.1916   -1.7801 C.2     1  UNL11       0.1183
     10 N           1.3787   -0.9596   -2.8619 N.2     1  UNL11      -0.0075
     11 N           1.7591   -0.2768   -3.9189 N.am    1  UNL11      -0.0358
     12 C           3.0061    0.2278   -3.9514 C.2     1  UNL11       0.4340
     13 O           3.3869    0.8807   -4.9479 O.2     1  UNL11      -0.2120
     14 C           3.8680    0.0320   -2.8964 C.2     1  UNL11       0.0740
     15 C           3.4398   -0.6910   -1.7972 C.2     1  UNL11      -0.0071
     16 C           4.4407   -0.8713   -0.7278 C.3     1  UNL11      -0.0252
     17 C           5.7654   -1.3299   -1.3157 C.3     1  UNL11      -0.0487
     18 C           6.2720   -0.3844   -2.3673 C.3     1  UNL11      -0.0484
     19 C           5.2312    0.5635   -2.9052 C.3     1  UNL11      -0.0176
     20 N          -0.7583   -1.4048   -0.4692 N.2     1  UNL11      -0.0504
     21 C          -5.5093   -0.7072    0.6998 C.ar    1  UNL11       0.0616
     22 C          -6.3714   -0.3499    1.7160 C.ar    1  UNL11      -0.0474
     23 C          -7.7344   -0.2661    1.5272 C.ar    1  UNL11      -0.0610
     24 C          -8.2575   -0.5471    0.2863 C.ar    1  UNL11      -0.0617
     25 C          -7.4238   -0.9111   -0.7650 C.ar    1  UNL11      -0.0610
     26 C          -6.0683   -0.9788   -0.5192 C.ar    1  UNL11      -0.0474
     27 H          -3.4263   -0.2766   -0.9543 H       1  UNL11       0.3016
     28 H          -1.3217    0.9255    1.7743 H       1  UNL11       0.0657
     29 H           0.9653    0.7548    0.6067 H       1  UNL11       0.0392
     30 H           0.8500   -0.5354    1.9262 H       1  UNL11       0.0392
     31 H           2.3905   -2.1275    0.1647 H       1  UNL11       0.0413
     32 H           1.3238   -2.9854   -0.9456 H       1  UNL11       0.0413
     33 H           1.1480   -0.1016   -4.7394 H       1  UNL11       0.4828
     34 H           4.5872    0.0993   -0.1952 H       1  UNL11       0.0314
     35 H           4.0945   -1.6399   -0.0308 H       1  UNL11       0.0314
     36 H           6.5009   -1.3432   -0.4853 H       1  UNL11       0.0268
     37 H           5.6467   -2.3666   -1.6665 H       1  UNL11       0.0268
     38 H           7.1333    0.2138   -1.9953 H       1  UNL11       0.0269
     39 H           6.6573   -0.9759   -3.2229 H       1  UNL11       0.0269
     40 H           5.4756    0.8548   -3.9641 H       1  UNL11       0.0316
     41 H           5.2761    1.5227   -2.3283 H       1  UNL11       0.0316
     42 H          -6.0168   -0.1129    2.7308 H       1  UNL11       0.0626
     43 H          -8.4133    0.0119    2.3145 H       1  UNL11       0.0618
     44 H          -9.3218   -0.4945    0.0911 H       1  UNL11       0.0618
     45 H          -7.8009   -1.1398   -1.7567 H       1  UNL11       0.0618
     46 H          -5.4352   -1.2618   -1.3413 H       1  UNL11       0.0626
@<TRIPOS>BOND
     1     1     2    2
     2     2     3   am
     3     2    21    1
     4     3     4    1
     5     3    27    1
     6     4     5    2
     7     5     6    1
     8     5    28    1
     9     6     7    1
    10     6    29    1
    11     6    30    1
    12     7     8    1
    13     7    20    2
    14     8     9    1
    15     8    31    1
    16     8    32    1
    17     9    10    2
    18    10    11    1
    19    11    12   am
    20    11    33    1
    21    12    13    2
    22    12    14    1
    23    14    15    2
    24    15    16    1
    25    15     9    1
    26    16    17    1
    27    16    34    1
    28    16    35    1
    29    17    18    1
    30    17    36    1
    31    17    37    1
    32    18    19    1
    33    18    38    1
    34    18    39    1
    35    19    14    1
    36    19    40    1
    37    19    41    1
    38    20     4    1
    39    21    22   ar
    40    22    23   ar
    41    22    42    1
    42    23    24   ar
    43    23    43    1
    44    24    25   ar
    45    24    44    1
    46    25    26   ar
    47    25    45    1
    48    26    21   ar
    49    26    46    1
@<TRIPOS>MOLECULE
*****
 46 49 0 0 0
SMALL
GASTEIGER

@<TRIPOS>ATOM
      1 O          -5.2889   -0.7030    0.6311 O.2     1  UNL11      -0.2418
      2 C          -4.0691   -0.7713    0.9902 C.2     1  UNL11       0.3328
      3 N          -3.0897   -0.5228    0.0266 N.am    1  UNL11      -0.1668
      4 C          -1.6720   -0.5643    0.2212 C.2     1  UNL11       0.3148
      5 C          -0.9982    0.1651    1.0653 C.2     1  UNL11       0.0147
      6 C           0.4367   -0.1846    0.9533 C.3     1  UNL11       0.0359
      7 C           0.4583   -1.2237   -0.0847 C.2     1  UNL11       0.1408
      8 C           1.6559   -1.9591   -0.6199 C.3     1  UNL11       0.0581
      9 C           2.8314   -1.0547   -0.5134 C.2     1  UNL11       0.1183
     10 N           3.8504   -1.1540   -1.4189 N.2     1  UNL11      -0.0075
     11 N           4.9151   -0.3830   -1.4060 N.am    1  UNL11      -0.0358
     12 C           5.0210    0.5614   -0.4533 C.2     1  UNL11       0.4340
     13 O           6.0260    1.3053   -0.4242 O.2     1  UNL11      -0.2120
     14 C           4.0319    0.7168    0.4911 C.2     1  UNL11       0.0740
     15 C           2.9229   -0.1095    0.4526 C.2     1  UNL11      -0.0071
     16 C           1.9286    0.1136    1.5201 C.3     1  UNL11      -0.0252
     17 C           2.6157    0.1955    2.8736 C.3     1  UNL11      -0.0487
     18 C           3.6775    1.2576    2.9024 C.3     1  UNL11      -0.0484
     19 C           4.1216    1.7308    1.5422 C.3     1  UNL11      -0.0176
     20 N          -0.7583   -1.4048   -0.4692 N.2     1  UNL11      -0.0504
     21 C          -3.7492   -1.1049    2.3862 C.ar    1  UNL11       0.0616
     22 C          -2.5942   -0.5909    2.9389 C.ar    1  UNL11      -0.0474
     23 C          -2.2219   -0.8549    4.2397 C.ar    1  UNL11      -0.0610
     24 C          -3.0251   -1.6571    5.0169 C.ar    1  UNL11      -0.0617
     25 C          -4.1976   -2.1953    4.4987 C.ar    1  UNL11      -0.0610
     26 C          -4.5208   -1.8978    3.1913 C.ar    1  UNL11      -0.0474
     27 H          -3.4263   -0.2766   -0.9543 H       1  UNL11       0.3016
     28 H          -1.3217    0.9255    1.7743 H       1  UNL11       0.0657
     29 H           0.9653    0.7548    0.6067 H       1  UNL11       0.0392
     30 H           0.8500   -0.5354    1.9262 H       1  UNL11       0.0392
     31 H           1.7863   -2.9113   -0.1102 H       1  UNL11       0.0413
     32 H           1.4575   -2.2202   -1.6979 H       1  UNL11       0.0413
     33 H           5.6878   -0.4599   -2.0947 H       1  UNL11       0.4828
     34 H           1.3852    1.0688    1.3213 H       1  UNL11       0.0314
     35 H           1.2273   -0.7255    1.5457 H       1  UNL11       0.0314
     36 H           1.8379    0.4698    3.6156 H       1  UNL11       0.0268
     37 H           2.9811   -0.8091    3.1363 H       1  UNL11       0.0268
     38 H           3.3516    2.1426    3.4931 H       1  UNL11       0.0269
     39 H           4.5707    0.8550    3.4225 H       1  UNL11       0.0269
     40 H           5.1877    2.0881    1.5797 H       1  UNL11       0.0316
     41 H           3.5273    2.6367    1.2574 H       1  UNL11       0.0316
     42 H          -1.9092    0.0569    2.3707 H       1  UNL11       0.0626
     43 H          -1.3229   -0.4579    4.6779 H       1  UNL11       0.0618
     44 H          -2.7731   -1.8919    6.0439 H       1  UNL11       0.0618
     45 H          -4.8552   -2.8319    5.0820 H       1  UNL11       0.0618
     46 H          -5.4303   -2.3211    2.8034 H       1  UNL11       0.0626
@<TRIPOS>BOND
     1     1     2    2
     2     2     3   am
     3     2    21    1
     4     3     4    1
     5     3    27    1
     6     4     5    2
     7     5     6    1
     8     5    28    1
     9     6     7    1
    10     6    29    1
    11     6    30    1
    12     7     8    1
    13     7    20    2
    14     8     9    1
    15     8    31    1
    16     8    32    1
    17     9    10    2
    18    10    11    1
    19    11    12   am
    20    11    33    1
    21    12    13    2
    22    12    14    1
    23    14    15    2
    24    15    16    1
    25    15     9    1
    26    16    17    1
    27    16    34    1
    28    16    35    1
    29    17    18    1
    30    17    36    1
    31    17    37    1
    32    18    19    1
    33    18    38    1
    34    18    39    1
    35    19    14    1
    36    19    40    1
    37    19    41    1
    38    20     4    1
    39    21    22   ar
    40    22    23   ar
    41    22    42    1
    42    23    24   ar
    43    23    43    1
    44    24    25   ar
    45    24    44    1
    46    25    26   ar
    47    25    45    1
    48    26    21   ar
    49    26    46    1
@<TRIPOS>MOLECULE
*****
 46 49 0 0 0
SMALL
GASTEIGER

@<TRIPOS>ATOM
      1 O          -3.6848   -1.0652    2.1681 O.2     1  UNL11      -0.2418
      2 C          -4.0691   -0.7713    0.9902 C.2     1  UNL11       0.3328
      3 N          -3.0897   -0.5228    0.0266 N.am    1  UNL11      -0.1668
      4 C          -1.6720   -0.5643    0.2212 C.2     1  UNL11       0.3148
      5 C          -0.9982    0.1651    1.0653 C.2     1  UNL11       0.0147
      6 C           0.4367   -0.1846    0.9533 C.3     1  UNL11       0.0359
      7 C           0.4583   -1.2237   -0.0847 C.2     1  UNL11       0.1408
      8 C           1.6559   -1.9591   -0.6199 C.3     1  UNL11       0.0581
      9 C           2.1812   -1.1916   -1.7801 C.2     1  UNL11       0.1183
     10 N           2.0251    0.1655   -1.8249 N.2     1  UNL11      -0.0075
     11 N           2.4741    0.9192   -2.8040 N.am    1  UNL11      -0.0358
     12 C           3.1259    0.3352   -3.8261 C.2     1  UNL11       0.4340
     13 O           3.5611    1.0349   -4.7670 O.2     1  UNL11      -0.2120
     14 C           3.3186   -1.0275   -3.8460 C.2     1  UNL11       0.0740
     15 C           2.8347   -1.7952   -2.8017 C.2     1  UNL11      -0.0071
     16 C           3.0654   -3.2478   -2.9227 C.3     1  UNL11      -0.0252
     17 C           2.6680   -3.7325   -4.3076 C.3     1  UNL11      -0.0487
     18 C           3.3881   -2.9851   -5.3936 C.3     1  UNL11      -0.0484
     19 C           4.0184   -1.6914   -4.9461 C.3     1  UNL11      -0.0176
     20 N          -0.7583   -1.4048   -0.4692 N.2     1  UNL11      -0.0504
     21 C          -5.5093   -0.7072    0.6998 C.ar    1  UNL11       0.0616
     22 C          -5.9099   -0.4021   -0.5847 C.ar    1  UNL11      -0.0474
     23 C          -7.2396   -0.3222   -0.9398 C.ar    1  UNL11      -0.0610
     24 C          -8.2030   -0.5535    0.0146 C.ar    1  UNL11      -0.0617
     25 C          -7.8422   -0.8639    1.3208 C.ar    1  UNL11      -0.0610
     26 C          -6.4973   -0.9304    1.6197 C.ar    1  UNL11      -0.0474
     27 H          -3.4263   -0.2766   -0.9543 H       1  UNL11       0.3016
     28 H          -1.3217    0.9255    1.7743 H       1  UNL11       0.0657
     29 H           0.9653    0.7548    0.6067 H       1  UNL11       0.0392
     30 H           0.8500   -0.5354    1.9262 H       1  UNL11       0.0392
     31 H           2.3905   -2.1275    0.1647 H       1  UNL11       0.0413
     32 H           1.3238   -2.9854   -0.9456 H       1  UNL11       0.0413
     33 H           2.3545    1.9498   -2.8360 H       1  UNL11       0.4828
     34 H           4.1476   -3.4628   -2.7507 H       1  UNL11       0.0314
     35 H           2.4504   -3.7766   -2.1887 H       1  UNL11       0.0314
     36 H           2.9627   -4.7999   -4.3741 H       1  UNL11       0.0268
     37 H           1.5709   -3.6888   -4.3867 H       1  UNL11       0.0268
     38 H           4.1746   -3.6139   -5.8671 H       1  UNL11       0.0269
     39 H           2.6651   -2.7419   -6.1988 H       1  UNL11       0.0269
     40 H           4.0723   -0.9642   -5.8029 H       1  UNL11       0.0316
     41 H           5.0863   -1.8817   -4.6664 H       1  UNL11       0.0316
     42 H          -5.1895   -0.2063   -1.3936 H       1  UNL11       0.0626
     43 H          -7.5600   -0.0848   -1.9392 H       1  UNL11       0.0618
     44 H          -9.2598   -0.5019   -0.2181 H       1  UNL11       0.0618
     45 H          -8.5744   -1.0524    2.0995 H       1  UNL11       0.0618
     46 H          -6.2325   -1.1713    2.6339 H       1  UNL11       0.0626
@<TRIPOS>BOND
     1     1     2    2
     2     2     3   am
     3     2    21    1
     4     3     4    1
     5     3    27    1
     6     4     5    2
     7     5     6    1
     8     5    28    1
     9     6     7    1
    10     6    29    1
    11     6    30    1
    12     7     8    1
    13     7    20    2
    14     8     9    1
    15     8    31    1
    16     8    32    1
    17     9    10    2
    18    10    11    1
    19    11    12   am
    20    11    33    1
    21    12    13    2
    22    12    14    1
    23    14    15    2
    24    15    16    1
    25    15     9    1
    26    16    17    1
    27    16    34    1
    28    16    35    1
    29    17    18    1
    30    17    36    1
    31    17    37    1
    32    18    19    1
    33    18    38    1
    34    18    39    1
    35    19    14    1
    36    19    40    1
    37    19    41    1
    38    20     4    1
    39    21    22   ar
    40    22    23   ar
    41    22    42    1
    42    23    24   ar
    43    23    43    1
    44    24    25   ar
    45    24    44    1
    46    25    26   ar
    47    25    45    1
    48    26    21   ar
    49    26    46    1
@<TRIPOS>MOLECULE
*****
 46 49 0 0 0
SMALL
GASTEIGER

@<TRIPOS>ATOM
      1 O          -3.2017   -2.1459   -1.5818 O.2     1  UNL11      -0.2418
      2 C          -3.8304   -1.3040   -0.8625 C.2     1  UNL11       0.3328
      3 N          -3.0897   -0.5228    0.0266 N.am    1  UNL11      -0.1668
      4 C          -1.6720   -0.5643    0.2212 C.2     1  UNL11       0.3148
      5 C          -0.9982    0.1651    1.0653 C.2     1  UNL11       0.0147
      6 C           0.4367   -0.1846    0.9533 C.3     1  UNL11       0.0359
      7 C           0.4583   -1.2237   -0.0847 C.2     1  UNL11       0.1408
      8 C           1.6559   -1.9591   -0.6199 C.3     1  UNL11       0.0581
      9 C           2.8314   -1.0547   -0.5134 C.2     1  UNL11       0.1183
     10 N           3.2287   -0.5969    0.7117 N.2     1  UNL11      -0.0075
     11 N           4.2654    0.1904    0.8949 N.am    1  UNL11      -0.0358
     12 C           4.9852    0.5752   -0.1750 C.2     1  UNL11       0.4340
     13 O           5.9754    1.3237   -0.0217 O.2     1  UNL11      -0.2120
     14 C           4.6414    0.1520   -1.4388 C.2     1  UNL11       0.0740
     15 C           3.5449   -0.6761   -1.6008 C.2     1  UNL11      -0.0071
     16 C           3.2378   -1.0563   -2.9932 C.3     1  UNL11      -0.0252
     17 C           3.2480    0.1705   -3.8906 C.3     1  UNL11      -0.0487
     18 C           4.5520    0.9125   -3.8149 C.3     1  UNL11      -0.0484
     19 C           5.4012    0.5580   -2.6214 C.3     1  UNL11      -0.0176
     20 N          -0.7583   -1.4048   -0.4692 N.2     1  UNL11      -0.0504
     21 C          -5.2905   -1.1928   -0.9977 C.ar    1  UNL11       0.0616
     22 C          -5.8831    0.0307   -0.7620 C.ar    1  UNL11      -0.0474
     23 C          -7.2446    0.2195   -0.8673 C.ar    1  UNL11      -0.0610
     24 C          -8.0435   -0.8439   -1.2185 C.ar    1  UNL11      -0.0617
     25 C          -7.4866   -2.0938   -1.4646 C.ar    1  UNL11      -0.0610
     26 C          -6.1188   -2.2252   -1.3447 C.ar    1  UNL11      -0.0474
     27 H          -3.6295    0.1764    0.6232 H       1  UNL11       0.3016
     28 H          -1.3217    0.9255    1.7743 H       1  UNL11       0.0657
     29 H           0.9653    0.7548    0.6067 H       1  UNL11       0.0392
     30 H           0.8500   -0.5354    1.9262 H       1  UNL11       0.0392
     31 H           1.7863   -2.9113   -0.1102 H       1  UNL11       0.0413
     32 H           1.4575   -2.2202   -1.6979 H       1  UNL11       0.0413
     33 H           4.5655    0.5369    1.8261 H       1  UNL11       0.4828
     34 H           4.0044   -1.7849   -3.3520 H       1  UNL11       0.0314
     35 H           2.2394   -1.5010   -3.0376 H       1  UNL11       0.0314
     36 H           3.1195   -0.1890   -4.9322 H       1  UNL11       0.0268
     37 H           2.3689    0.7855   -3.6442 H       1  UNL11       0.0268
     38 H           5.1592    0.7624   -4.7352 H       1  UNL11       0.0269
     39 H           4.3408    2.0001   -3.7618 H       1  UNL11       0.0269
     40 H           6.0479    1.4304   -2.3270 H       1  UNL11       0.0316
     41 H           6.1239   -0.2471   -2.9121 H       1  UNL11       0.0316
     42 H          -5.3005    0.9203   -0.4777 H       1  UNL11       0.0626
     43 H          -7.7143    1.1704   -0.6851 H       1  UNL11       0.0618
     44 H          -9.1179   -0.7429   -1.3134 H       1  UNL11       0.0618
     45 H          -8.0854   -2.9549   -1.7436 H       1  UNL11       0.0618
     46 H          -5.7016   -3.1975   -1.5376 H       1  UNL11       0.0626
@<TRIPOS>BOND
     1     1     2    2
     2     2     3   am
     3     2    21    1
     4     3     4    1
     5     3    27    1
     6     4     5    2
     7     5     6    1
     8     5    28    1
     9     6     7    1
    10     6    29    1
    11     6    30    1
    12     7     8    1
    13     7    20    2
    14     8     9    1
    15     8    31    1
    16     8    32    1
    17     9    10    2
    18    10    11    1
    19    11    12   am
    20    11    33    1
    21    12    13    2
    22    12    14    1
    23    14    15    2
    24    15    16    1
    25    15     9    1
    26    16    17    1
    27    16    34    1
    28    16    35    1
    29    17    18    1
    30    17    36    1
    31    17    37    1
    32    18    19    1
    33    18    38    1
    34    18    39    1
    35    19    14    1
    36    19    40    1
    37    19    41    1
    38    20     4    1
    39    21    22   ar
    40    22    23   ar
    41    22    42    1
    42    23    24   ar
    43    23    43    1
    44    24    25   ar
    45    24    44    1
    46    25    26   ar
    47    25    45    1
    48    26    21   ar
    49    26    46    1
@<TRIPOS>MOLECULE
*****
 46 49 0 0 0
SMALL
GASTEIGER

@<TRIPOS>ATOM
      1 O          -5.0893   -1.1191   -0.9116 O.2     1  UNL11      -0.2418
      2 C          -3.8304   -1.3040   -0.8625 C.2     1  UNL11       0.3328
      3 N          -3.0897   -0.5228    0.0266 N.am    1  UNL11      -0.1668
      4 C          -1.6720   -0.5643    0.2212 C.2     1  UNL11       0.3148
      5 C          -0.9982    0.1651    1.0653 C.2     1  UNL11       0.0147
      6 C           0.4367   -0.1846    0.9533 C.3     1  UNL11       0.0359
      7 C           0.4583   -1.2237   -0.0847 C.2     1  UNL11       0.1408
      8 C           1.6559   -1.9591   -0.6199 C.3     1  UNL11       0.0581
      9 C           2.2838   -2.6922    0.5112 C.2     1  UNL11       0.1183
     10 N           1.8943   -3.9719    0.7923 N.2     1  UNL11      -0.0075
     11 N           2.4099   -4.6947    1.7618 N.am    1  UNL11      -0.0358
     12 C           3.3763   -4.1573    2.5285 C.2     1  UNL11       0.4340
     13 O           3.8800   -4.8288    3.4557 O.2     1  UNL11      -0.2120
     14 C           3.8167   -2.8731    2.3017 C.2     1  UNL11       0.0740
     15 C           3.2552   -2.1362    1.2742 C.2     1  UNL11      -0.0071
     16 C           3.7718   -0.7620    1.1238 C.3     1  UNL11      -0.0252
     17 C           3.8012   -0.0581    2.4707 C.3     1  UNL11      -0.0487
     18 C           4.6017   -0.8211    3.4872 C.3     1  UNL11      -0.0484
     19 C           4.8617   -2.2600    3.1220 C.3     1  UNL11      -0.0176
     20 N          -0.7583   -1.4048   -0.4692 N.2     1  UNL11      -0.0504
     21 C          -3.2193   -2.3193   -1.7333 C.ar    1  UNL11       0.0616
     22 C          -4.0366   -3.0409   -2.5788 C.ar    1  UNL11      -0.0474
     23 C          -3.5438   -4.0099   -3.4265 C.ar    1  UNL11      -0.0610
     24 C          -2.1929   -4.2701   -3.4334 C.ar    1  UNL11      -0.0617
     25 C          -1.3343   -3.5657   -2.5970 C.ar    1  UNL11      -0.0610
     26 C          -1.8822   -2.6075   -1.7700 C.ar    1  UNL11      -0.0474
     27 H          -3.6295    0.1764    0.6232 H       1  UNL11       0.3016
     28 H          -1.3217    0.9255    1.7743 H       1  UNL11       0.0657
     29 H           0.9653    0.7548    0.6067 H       1  UNL11       0.0392
     30 H           0.8500   -0.5354    1.9262 H       1  UNL11       0.0392
     31 H           1.3780   -2.5965   -1.4566 H       1  UNL11       0.0413
     32 H           2.3745   -1.2023   -1.0447 H       1  UNL11       0.0413
     33 H           2.1128   -5.6664    1.9735 H       1  UNL11       0.4828
     34 H           4.8057   -0.8028    0.7037 H       1  UNL11       0.0314
     35 H           3.1126   -0.1959    0.4593 H       1  UNL11       0.0314
     36 H           4.2953    0.9226    2.3129 H       1  UNL11       0.0268
     37 H           2.7633    0.1423    2.7780 H       1  UNL11       0.0268
     38 H           5.5785   -0.3279    3.6891 H       1  UNL11       0.0269
     39 H           4.0519   -0.8166    4.4506 H       1  UNL11       0.0269
     40 H           4.9766   -2.8858    4.0498 H       1  UNL11       0.0316
     41 H           5.8525   -2.3333    2.6044 H       1  UNL11       0.0316
     42 H          -5.1249   -2.8812   -2.6214 H       1  UNL11       0.0626
     43 H          -4.1745   -4.5769   -4.0888 H       1  UNL11       0.0618
     44 H          -1.7606   -5.0222   -4.0823 H       1  UNL11       0.0618
     45 H          -0.2640   -3.7440   -2.5755 H       1  UNL11       0.0618
     46 H          -1.2065   -2.0705   -1.1281 H       1  UNL11       0.0626
@<TRIPOS>BOND
     1     1     2    2
     2     2     3   am
     3     2    21    1
     4     3     4    1
     5     3    27    1
     6     4     5    2
     7     5     6    1
     8     5    28    1
     9     6     7    1
    10     6    29    1
    11     6    30    1
    12     7     8    1
    13     7    20    2
    14     8     9    1
    15     8    31    1
    16     8    32    1
    17     9    10    2
    18    10    11    1
    19    11    12   am
    20    11    33    1
    21    12    13    2
    22    12    14    1
    23    14    15    2
    24    15    16    1
    25    15     9    1
    26    16    17    1
    27    16    34    1
    28    16    35    1
    29    17    18    1
    30    17    36    1
    31    17    37    1
    32    18    19    1
    33    18    38    1
    34    18    39    1
    35    19    14    1
    36    19    40    1
    37    19    41    1
    38    20     4    1
    39    21    22   ar
    40    22    23   ar
    41    22    42    1
    42    23    24   ar
    43    23    43    1
    44    24    25   ar
    45    24    44    1
    46    25    26   ar
    47    25    45    1
    48    26    21   ar
    49    26    46    1
@<TRIPOS>MOLECULE
*****
 46 49 0 0 0
SMALL
GASTEIGER

@<TRIPOS>ATOM
      1 O          -3.6493    0.0959    2.1569 O.2     1  UNL11      -0.2418
      2 C          -4.0516   -0.1978    0.9850 C.2     1  UNL11       0.3328
      3 N          -3.0897   -0.5228    0.0266 N.am    1  UNL11      -0.1668
      4 C          -1.6720   -0.5643    0.2212 C.2     1  UNL11       0.3148
      5 C          -0.9982    0.1651    1.0653 C.2     1  UNL11       0.0147
      6 C           0.4367   -0.1846    0.9533 C.3     1  UNL11       0.0359
      7 C           0.4583   -1.2237   -0.0847 C.2     1  UNL11       0.1408
      8 C           1.6559   -1.9591   -0.6199 C.3     1  UNL11       0.0581
      9 C           2.6658   -2.0391    0.4686 C.2     1  UNL11       0.1183
     10 N           3.8660   -2.6515    0.2394 N.2     1  UNL11      -0.0075
     11 N           4.8184   -2.7498    1.1403 N.am    1  UNL11      -0.0358
     12 C           4.6137   -2.2223    2.3612 C.2     1  UNL11       0.4340
     13 O           5.5075   -2.3051    3.2321 O.2     1  UNL11      -0.2120
     14 C           3.4277   -1.5914    2.6612 C.2     1  UNL11       0.0740
     15 C           2.4436   -1.5034    1.6928 C.2     1  UNL11      -0.0071
     16 C           1.1979   -0.8335    2.1139 C.3     1  UNL11      -0.0252
     17 C           0.7286   -1.3825    3.4514 C.3     1  UNL11      -0.0487
     18 C           1.7854   -1.2603    4.5120 C.3     1  UNL11      -0.0484
     19 C           3.1741   -1.0134    3.9812 C.3     1  UNL11      -0.0176
     20 N          -0.7583   -1.4048   -0.4692 N.2     1  UNL11      -0.0504
     21 C          -5.4934   -0.1819    0.6958 C.ar    1  UNL11       0.0616
     22 C          -6.2981    0.6872    1.4034 C.ar    1  UNL11      -0.0474
     23 C          -7.6584    0.7644    1.1932 C.ar    1  UNL11      -0.0610
     24 C          -8.2377   -0.0500    0.2479 C.ar    1  UNL11      -0.0617
     25 C          -7.4627   -0.9400   -0.4871 C.ar    1  UNL11      -0.0610
     26 C          -6.1071   -0.9748   -0.2353 C.ar    1  UNL11      -0.0474
     27 H          -3.4411   -0.7649   -0.9501 H       1  UNL11       0.3016
     28 H          -1.3217    0.9255    1.7743 H       1  UNL11       0.0657
     29 H           0.9653    0.7548    0.6067 H       1  UNL11       0.0392
     30 H           0.8500   -0.5354    1.9262 H       1  UNL11       0.0392
     31 H           1.3681   -2.9271   -1.0244 H       1  UNL11       0.0413
     32 H           2.0657   -1.3781   -1.4941 H       1  UNL11       0.0413
     33 H           5.7292   -3.2152    0.9641 H       1  UNL11       0.4828
     34 H           1.3852    0.2634    2.2080 H       1  UNL11       0.0314
     35 H           0.4141   -1.0242    1.3749 H       1  UNL11       0.0314
     36 H          -0.1423   -0.7710    3.7649 H       1  UNL11       0.0268
     37 H           0.3690   -2.4111    3.2951 H       1  UNL11       0.0268
     38 H           1.5394   -0.4558    5.2403 H       1  UNL11       0.0269
     39 H           1.8152   -2.2029    5.0959 H       1  UNL11       0.0269
     40 H           3.9442   -1.4293    4.6881 H       1  UNL11       0.0316
     41 H           3.3691    0.0896    3.9644 H       1  UNL11       0.0316
     42 H          -5.8969    1.3645    2.1727 H       1  UNL11       0.0626
     43 H          -8.2928    1.4395    1.7409 H       1  UNL11       0.0618
     44 H          -9.3022   -0.0242    0.0485 H       1  UNL11       0.0618
     45 H          -7.8851   -1.5972   -1.2405 H       1  UNL11       0.0618
     46 H          -5.5199   -1.6680   -0.8109 H       1  UNL11       0.0626
@<TRIPOS>BOND
     1     1     2    2
     2     2     3   am
     3     2    21    1
     4     3     4    1
     5     3    27    1
     6     4     5    2
     7     5     6    1
     8     5    28    1
     9     6     7    1
    10     6    29    1
    11     6    30    1
    12     7     8    1
    13     7    20    2
    14     8     9    1
    15     8    31    1
    16     8    32    1
    17     9    10    2
    18    10    11    1
    19    11    12   am
    20    11    33    1
    21    12    13    2
    22    12    14    1
    23    14    15    2
    24    15    16    1
    25    15     9    1
    26    16    17    1
    27    16    34    1
    28    16    35    1
    29    17    18    1
    30    17    36    1
    31    17    37    1
    32    18    19    1
    33    18    38    1
    34    18    39    1
    35    19    14    1
    36    19    40    1
    37    19    41    1
    38    20     4    1
    39    21    22   ar
    40    22    23   ar
    41    22    42    1
    42    23    24   ar
    43    23    43    1
    44    24    25   ar
    45    24    44    1
    46    25    26   ar
    47    25    45    1
    48    26    21   ar
    49    26    46    1
@<TRIPOS>MOLECULE
*****
 46 49 0 0 0
SMALL
GASTEIGER

@<TRIPOS>ATOM
      1 O          -5.2668   -1.1315    0.3787 O.2     1  UNL11      -0.2418
      2 C          -4.0437   -1.2932    0.6942 C.2     1  UNL11       0.3328
      3 N          -3.0897   -0.5228    0.0266 N.am    1  UNL11      -0.1668
      4 C          -1.6720   -0.5643    0.2212 C.2     1  UNL11       0.3148
      5 C          -0.9982    0.1651    1.0653 C.2     1  UNL11       0.0147
      6 C           0.4367   -0.1846    0.9533 C.3     1  UNL11       0.0359
      7 C           0.4583   -1.2237   -0.0847 C.2     1  UNL11       0.1408
      8 C           1.6559   -1.9591   -0.6199 C.3     1  UNL11       0.0581
      9 C           1.4543   -3.4092   -0.3597 C.2     1  UNL11       0.1183
     10 N           0.8296   -4.1875   -1.2937 N.2     1  UNL11      -0.0075
     11 N           0.6275   -5.4785   -1.1498 N.am    1  UNL11      -0.0358
     12 C           1.0542   -6.0808   -0.0246 C.2     1  UNL11       0.4340
     13 O           0.8718   -7.3082    0.1311 O.2     1  UNL11      -0.2120
     14 C           1.6908   -5.3574    0.9582 C.2     1  UNL11       0.0740
     15 C           1.8894   -4.0000    0.7789 C.2     1  UNL11      -0.0071
     16 C           2.5562   -3.3038    1.8963 C.3     1  UNL11      -0.0252
     17 C           1.9084   -3.6841    3.2179 C.3     1  UNL11      -0.0487
     18 C           1.9092   -5.1701    3.4380 C.3     1  UNL11      -0.0484
     19 C           2.1608   -5.9833    2.1944 C.3     1  UNL11      -0.0176
     20 N          -0.7583   -1.4048   -0.4692 N.2     1  UNL11      -0.0504
     21 C          -3.6939   -2.2720    1.7345 C.ar    1  UNL11       0.0616
     22 C          -2.4725   -2.9090    1.6564 C.ar    1  UNL11      -0.0474
     23 C          -2.0683   -3.8388    2.5905 C.ar    1  UNL11      -0.0610
     24 C          -2.9068   -4.1456    3.6370 C.ar    1  UNL11      -0.0617
     25 C          -4.1464   -3.5266    3.7529 C.ar    1  UNL11      -0.0610
     26 C          -4.4989   -2.6043    2.7899 C.ar    1  UNL11      -0.0474
     27 H          -3.4479    0.1676   -0.7022 H       1  UNL11       0.3016
     28 H          -1.3217    0.9255    1.7743 H       1  UNL11       0.0657
     29 H           0.9653    0.7548    0.6067 H       1  UNL11       0.0392
     30 H           0.8500   -0.5354    1.9262 H       1  UNL11       0.0392
     31 H           1.8220   -1.7195   -1.6680 H       1  UNL11       0.0413
     32 H           2.5707   -1.5862   -0.0780 H       1  UNL11       0.0413
     33 H           0.1530   -6.0678   -1.8603 H       1  UNL11       0.4828
     34 H           3.6352   -3.5910    1.9157 H       1  UNL11       0.0314
     35 H           2.4519   -2.2227    1.7660 H       1  UNL11       0.0314
     36 H           2.5155   -3.2194    4.0217 H       1  UNL11       0.0268
     37 H           0.9077   -3.2272    3.2556 H       1  UNL11       0.0268
     38 H           2.6551   -5.4666    4.2086 H       1  UNL11       0.0269
     39 H           0.9197   -5.4718    3.8382 H       1  UNL11       0.0269
     40 H           1.6641   -6.9895    2.2762 H       1  UNL11       0.0316
     41 H           3.2552   -6.2110    2.1208 H       1  UNL11       0.0316
     42 H          -1.7566   -2.7085    0.8448 H       1  UNL11       0.0626
     43 H          -1.1175   -4.3399    2.5366 H       1  UNL11       0.0618
     44 H          -2.6318   -4.8696    4.3944 H       1  UNL11       0.0618
     45 H          -4.8335   -3.7436    4.5645 H       1  UNL11       0.0618
     46 H          -5.4605   -2.1334    2.8918 H       1  UNL11       0.0626
@<TRIPOS>BOND
     1     1     2    2
     2     2     3   am
     3     2    21    1
     4     3     4    1
     5     3    27    1
     6     4     5    2
     7     5     6    1
     8     5    28    1
     9     6     7    1
    10     6    29    1
    11     6    30    1
    12     7     8    1
    13     7    20    2
    14     8     9    1
    15     8    31    1
    16     8    32    1
    17     9    10    2
    18    10    11    1
    19    11    12   am
    20    11    33    1
    21    12    13    2
    22    12    14    1
    23    14    15    2
    24    15    16    1
    25    15     9    1
    26    16    17    1
    27    16    34    1
    28    16    35    1
    29    17    18    1
    30    17    36    1
    31    17    37    1
    32    18    19    1
    33    18    38    1
    34    18    39    1
    35    19    14    1
    36    19    40    1
    37    19    41    1
    38    20     4    1
    39    21    22   ar
    40    22    23   ar
    41    22    42    1
    42    23    24   ar
    43    23    43    1
    44    24    25   ar
    45    24    44    1
    46    25    26   ar
    47    25    45    1
    48    26    21   ar
    49    26    46    1
@<TRIPOS>MOLECULE
*****
 46 49 0 0 0
SMALL
GASTEIGER

@<TRIPOS>ATOM
      1 O          -5.0520    0.1991   -0.9020 O.2     1  UNL11      -0.2418
      2 C          -3.7819    0.2860   -0.8768 C.2     1  UNL11       0.3328
      3 N          -3.0897   -0.5228    0.0266 N.am    1  UNL11      -0.1668
      4 C          -1.6720   -0.5643    0.2212 C.2     1  UNL11       0.3148
      5 C          -0.9982    0.1651    1.0653 C.2     1  UNL11       0.0147
      6 C           0.4367   -0.1846    0.9533 C.3     1  UNL11       0.0359
      7 C           0.4583   -1.2237   -0.0847 C.2     1  UNL11       0.1408
      8 C           1.6559   -1.9591   -0.6199 C.3     1  UNL11       0.0581
      9 C           1.1817   -2.9006   -1.6686 C.2     1  UNL11       0.1183
     10 N          -0.1490   -2.9641   -1.9744 N.2     1  UNL11      -0.0075
     11 N          -0.6479   -3.7550   -2.8984 N.am    1  UNL11      -0.0358
     12 C           0.1868   -4.5525   -3.5898 C.2     1  UNL11       0.4340
     13 O          -0.2682   -5.3119   -4.4733 O.2     1  UNL11      -0.2120
     14 C           1.5390   -4.5403   -3.3336 C.2     1  UNL11       0.0740
     15 C           2.0353   -3.6975   -2.3550 C.2     1  UNL11      -0.0071
     16 C           3.4923   -3.7726   -2.1329 C.3     1  UNL11      -0.0252
     17 C           3.9342   -5.2218   -2.0099 C.3     1  UNL11      -0.0487
     18 C           3.5340   -6.0358   -3.2073 C.3     1  UNL11      -0.0484
     19 C           2.4704   -5.3998   -4.0648 C.3     1  UNL11      -0.0176
     20 N          -0.7583   -1.4048   -0.4692 N.2     1  UNL11      -0.0504
     21 C          -3.1080    1.2227   -1.7885 C.ar    1  UNL11       0.0616
     22 C          -3.7776    2.3666   -2.1716 C.ar    1  UNL11      -0.0474
     23 C          -3.2174    3.2952   -3.0226 C.ar    1  UNL11      -0.0610
     24 C          -1.9489    3.0789   -3.5091 C.ar    1  UNL11      -0.0617
     25 C          -1.2395    1.9390   -3.1480 C.ar    1  UNL11      -0.0610
     26 C          -1.8490    1.0440   -2.2936 C.ar    1  UNL11      -0.0474
     27 H          -3.6708   -1.1774    0.6348 H       1  UNL11       0.3016
     28 H          -1.3217    0.9255    1.7743 H       1  UNL11       0.0657
     29 H           0.9653    0.7548    0.6067 H       1  UNL11       0.0392
     30 H           0.8500   -0.5354    1.9262 H       1  UNL11       0.0392
     31 H           2.4164   -1.2624   -0.9661 H       1  UNL11       0.0413
     32 H           2.1319   -2.5252    0.2302 H       1  UNL11       0.0413
     33 H          -1.6588   -3.8016   -3.1293 H       1  UNL11       0.4828
     34 H           4.0196   -3.2956   -2.9941 H       1  UNL11       0.0314
     35 H           3.7454   -3.2603   -1.2001 H       1  UNL11       0.0314
     36 H           5.0422   -5.2189   -1.9536 H       1  UNL11       0.0268
     37 H           3.5574   -5.6174   -1.0542 H       1  UNL11       0.0268
     38 H           4.4108   -6.2702   -3.8511 H       1  UNL11       0.0269
     39 H           3.1405   -7.0126   -2.8590 H       1  UNL11       0.0269
     40 H           1.8641   -6.1898   -4.5885 H       1  UNL11       0.0316
     41 H           2.9615   -4.8236   -4.8905 H       1  UNL11       0.0316
     42 H          -4.7940    2.5983   -1.8181 H       1  UNL11       0.0626
     43 H          -3.7330    4.1897   -3.3259 H       1  UNL11       0.0618
     44 H          -1.4684    3.7806   -4.1801 H       1  UNL11       0.0618
     45 H          -0.2376    1.7354   -3.5120 H       1  UNL11       0.0618
     46 H          -1.2890    0.1666   -2.0230 H       1  UNL11       0.0626
@<TRIPOS>BOND
     1     1     2    2
     2     2     3   am
     3     2    21    1
     4     3     4    1
     5     3    27    1
     6     4     5    2
     7     5     6    1
     8     5    28    1
     9     6     7    1
    10     6    29    1
    11     6    30    1
    12     7     8    1
    13     7    20    2
    14     8     9    1
    15     8    31    1
    16     8    32    1
    17     9    10    2
    18    10    11    1
    19    11    12   am
    20    11    33    1
    21    12    13    2
    22    12    14    1
    23    14    15    2
    24    15    16    1
    25    15     9    1
    26    16    17    1
    27    16    34    1
    28    16    35    1
    29    17    18    1
    30    17    36    1
    31    17    37    1
    32    18    19    1
    33    18    38    1
    34    18    39    1
    35    19    14    1
    36    19    40    1
    37    19    41    1
    38    20     4    1
    39    21    22   ar
    40    22    23   ar
    41    22    42    1
    42    23    24   ar
    43    23    43    1
    44    24    25   ar
    45    24    44    1
    46    25    26   ar
    47    25    45    1
    48    26    21   ar
    49    26    46    1
