@<TRIPOS>MOLECULE
*****
 39 42 0 0 0
SMALL
GASTEIGER

@<TRIPOS>ATOM
      1 O          -0.6809   -0.4715    5.3012 O.2     1  UNL11      -0.2116
      2 C          -0.7539   -0.7759    4.0825 C.2     1  UNL11       0.4383
      3 N          -0.0977   -1.8356    3.5890 N.am    1  UNL11      -0.0356
      4 N          -0.1934   -2.1192    2.3302 N.2     1  UNL11      -0.0073
      5 C          -0.9241   -1.4247    1.4039 C.2     1  UNL11       0.1192
      6 C          -0.8741   -1.8207   -0.0254 C.3     1  UNL11       0.0211
      7 C           0.1694   -1.1553   -0.8164 C.ar    1  UNL11      -0.0406
      8 C           0.0458   -0.8909   -2.1405 C.ar    1  UNL11      -0.0555
      9 C           1.0623   -0.2468   -2.8716 C.ar    1  UNL11      -0.0256
     10 C           2.2166    0.1324   -2.2528 C.ar    1  UNL11       0.1311
     11 F           3.2155    0.7574   -2.9462 F       1  UNL11      -0.2049
     12 C           2.3870   -0.1157   -0.9080 C.ar    1  UNL11       0.0177
     13 C           3.6222    0.2903   -0.2320 C.ar    1  UNL11      -0.0123
     14 C           4.1314   -0.3960    0.8413 C.ar    1  UNL11      -0.0358
     15 C           5.3088    0.0092    1.4688 C.ar    1  UNL11       0.0281
     16 N           5.9527    1.0970    1.0065 N.ar    1  UNL11      -0.2632
     17 C           5.4868    1.7948   -0.0410 C.ar    1  UNL11       0.0281
     18 C           4.3044    1.3966   -0.6795 C.ar    1  UNL11      -0.0358
     19 C           1.3764   -0.7435   -0.2325 C.ar    1  UNL11      -0.0477
     20 C          -1.6154   -0.3308    1.8668 C.ar    1  UNL11       0.0192
     21 C          -2.3955    0.4065    1.0081 C.ar    1  UNL11      -0.0518
     22 C          -3.0895    1.4815    1.5087 C.ar    1  UNL11      -0.0611
     23 C          -3.0063    1.8132    2.8435 C.ar    1  UNL11      -0.0608
     24 C          -2.2267    1.0750    3.7078 C.ar    1  UNL11      -0.0441
     25 C          -1.5317   -0.0018    3.2098 C.ar    1  UNL11       0.1004
     26 H           0.4854   -2.4035    4.2767 H       1  UNL11       0.4829
     27 H          -1.8710   -1.8098   -0.5080 H       1  UNL11       0.0379
     28 H          -0.6008   -2.9186   -0.0185 H       1  UNL11       0.0379
     29 H          -0.7988   -1.1482   -2.7213 H       1  UNL11       0.0621
     30 H           0.9256   -0.0481   -3.9466 H       1  UNL11       0.0646
     31 H           3.6440   -1.2690    1.2403 H       1  UNL11       0.0639
     32 H           5.7349   -0.5049    2.3121 H       1  UNL11       0.0830
     33 H           6.0505    2.6558   -0.3627 H       1  UNL11       0.0830
     34 H           3.9456    1.9732   -1.5187 H       1  UNL11       0.0639
     35 H           1.4877   -0.9495    0.8226 H       1  UNL11       0.0627
     36 H          -2.4740    0.1396   -0.0079 H       1  UNL11       0.0624
     37 H          -3.7271    2.1161    0.8995 H       1  UNL11       0.0618
     38 H          -3.5495    2.6574    3.2453 H       1  UNL11       0.0618
     39 H          -2.1307    1.2928    4.7602 H       1  UNL11       0.0627
@<TRIPOS>BOND
     1     1     2    2
     2     2     3   am
     3     3     4    1
     4     3    26    1
     5     4     5    2
     6     5     6    1
     7     5    20    1
     8     6     7    1
     9     6    27    1
    10     6    28    1
    11     7     8   ar
    12     8     9   ar
    13     8    29    1
    14     9    10   ar
    15     9    30    1
    16    10    11    1
    17    10    12   ar
    18    12    13    1
    19    12    19   ar
    20    13    14   ar
    21    14    15   ar
    22    14    31    1
    23    15    16   ar
    24    15    32    1
    25    16    17   ar
    26    17    18   ar
    27    17    33    1
    28    18    13   ar
    29    18    34    1
    30    19     7   ar
    31    19    35    1
    32    20    21   ar
    33    21    22   ar
    34    21    36    1
    35    22    23   ar
    36    22    37    1
    37    23    24   ar
    38    23    38    1
    39    24    25   ar
    40    24    39    1
    41    25     2    1
    42    25    20   ar
@<TRIPOS>MOLECULE
*****
 39 42 0 0 0
SMALL
GASTEIGER

@<TRIPOS>ATOM
      1 O          -2.5448   -6.8218   -1.5835 O.2     1  UNL11      -0.2116
      2 C          -2.1349   -5.6855   -1.2313 C.2     1  UNL11       0.4383
      3 N          -2.6385   -5.0668   -0.1539 N.am    1  UNL11      -0.0356
      4 N          -2.1952   -3.8978    0.1792 N.2     1  UNL11      -0.0073
      5 C          -1.2243   -3.1901   -0.4773 C.2     1  UNL11       0.1192
      6 C          -0.8741   -1.8207   -0.0254 C.3     1  UNL11       0.0211
      7 C           0.1694   -1.1553   -0.8164 C.ar    1  UNL11      -0.0406
      8 C           0.0458   -0.8909   -2.1405 C.ar    1  UNL11      -0.0555
      9 C           1.0623   -0.2468   -2.8716 C.ar    1  UNL11      -0.0256
     10 C           2.2166    0.1324   -2.2528 C.ar    1  UNL11       0.1311
     11 F           3.2155    0.7574   -2.9462 F       1  UNL11      -0.2049
     12 C           2.3870   -0.1157   -0.9080 C.ar    1  UNL11       0.0177
     13 C           3.6222    0.2903   -0.2320 C.ar    1  UNL11      -0.0123
     14 C           4.8275    0.3585   -0.8839 C.ar    1  UNL11      -0.0358
     15 C           5.9902    0.7476   -0.2196 C.ar    1  UNL11       0.0281
     16 N           5.9203    1.0606    1.0876 N.ar    1  UNL11      -0.2632
     17 C           4.7602    1.0065    1.7602 C.ar    1  UNL11       0.0281
     18 C           3.5853    0.6169    1.1027 C.ar    1  UNL11      -0.0358
     19 C           1.3764   -0.7435   -0.2325 C.ar    1  UNL11      -0.0477
     20 C          -0.6780   -3.7881   -1.5876 C.ar    1  UNL11       0.0192
     21 C           0.3218   -3.1577   -2.2894 C.ar    1  UNL11      -0.0518
     22 C           0.8598   -3.7933   -3.3822 C.ar    1  UNL11      -0.0611
     23 C           0.4077   -5.0370   -3.7663 C.ar    1  UNL11      -0.0608
     24 C          -0.5933   -5.6731   -3.0638 C.ar    1  UNL11      -0.0441
     25 C          -1.1329   -5.0396   -1.9692 C.ar    1  UNL11       0.1004
     26 H          -3.3990   -5.5826    0.3857 H       1  UNL11       0.4829
     27 H          -0.7082   -1.7597    1.0681 H       1  UNL11       0.0379
     28 H          -1.8134   -1.2091   -0.1801 H       1  UNL11       0.0379
     29 H          -0.7988   -1.1482   -2.7213 H       1  UNL11       0.0621
     30 H           0.9256   -0.0481   -3.9466 H       1  UNL11       0.0646
     31 H           4.9232    0.1143   -1.9279 H       1  UNL11       0.0639
     32 H           6.9507    0.8110   -0.6996 H       1  UNL11       0.0830
     33 H           4.7719    1.2709    2.8055 H       1  UNL11       0.0830
     34 H           2.6632    0.5777    1.6627 H       1  UNL11       0.0639
     35 H           1.4877   -0.9495    0.8226 H       1  UNL11       0.0627
     36 H           0.6803   -2.2159   -1.9826 H       1  UNL11       0.0624
     37 H           1.6512   -3.3657   -3.9914 H       1  UNL11       0.0618
     38 H           0.8260   -5.5440   -4.6249 H       1  UNL11       0.0618
     39 H          -0.9794   -6.6466   -3.3230 H       1  UNL11       0.0627
@<TRIPOS>BOND
     1     1     2    2
     2     2     3   am
     3     3     4    1
     4     3    26    1
     5     4     5    2
     6     5     6    1
     7     5    20    1
     8     6     7    1
     9     6    27    1
    10     6    28    1
    11     7     8   ar
    12     8     9   ar
    13     8    29    1
    14     9    10   ar
    15     9    30    1
    16    10    11    1
    17    10    12   ar
    18    12    13    1
    19    12    19   ar
    20    13    14   ar
    21    14    15   ar
    22    14    31    1
    23    15    16   ar
    24    15    32    1
    25    16    17   ar
    26    17    18   ar
    27    17    33    1
    28    18    13   ar
    29    18    34    1
    30    19     7   ar
    31    19    35    1
    32    20    21   ar
    33    21    22   ar
    34    21    36    1
    35    22    23   ar
    36    22    37    1
    37    23    24   ar
    38    23    38    1
    39    24    25   ar
    40    24    39    1
    41    25     2    1
    42    25    20   ar
@<TRIPOS>MOLECULE
*****
 39 42 0 0 0
SMALL
GASTEIGER

@<TRIPOS>ATOM
      1 O          -0.7676   -0.0945    5.1937 O.2     1  UNL11      -0.2116
      2 C          -0.8097   -0.5112    4.0072 C.2     1  UNL11       0.4383
      3 N           0.3002   -0.5994    3.2604 N.am    1  UNL11      -0.0356
      4 N           0.2207   -1.0305    2.0431 N.2     1  UNL11      -0.0073
      5 C          -0.9241   -1.4247    1.4039 C.2     1  UNL11       0.1192
      6 C          -0.8741   -1.8207   -0.0254 C.3     1  UNL11       0.0211
      7 C           0.1694   -1.1553   -0.8164 C.ar    1  UNL11      -0.0406
      8 C           0.0458   -0.8909   -2.1405 C.ar    1  UNL11      -0.0555
      9 C           1.0623   -0.2468   -2.8716 C.ar    1  UNL11      -0.0256
     10 C           2.2166    0.1324   -2.2528 C.ar    1  UNL11       0.1311
     11 F           3.2155    0.7574   -2.9462 F       1  UNL11      -0.2049
     12 C           2.3870   -0.1157   -0.9080 C.ar    1  UNL11       0.0177
     13 C           3.6222    0.2903   -0.2320 C.ar    1  UNL11      -0.0123
     14 C           3.8420    0.0518    1.1011 C.ar    1  UNL11      -0.0358
     15 C           5.0257    0.4475    1.7231 C.ar    1  UNL11       0.0281
     16 N           5.9664    1.0761    0.9940 N.ar    1  UNL11      -0.2632
     17 C           5.7890    1.3273   -0.3124 C.ar    1  UNL11       0.0281
     18 C           4.6033    0.9340   -0.9479 C.ar    1  UNL11      -0.0358
     19 C           1.3764   -0.7435   -0.2325 C.ar    1  UNL11      -0.0477
     20 C          -2.0866   -1.3528    2.1335 C.ar    1  UNL11       0.0192
     21 C          -3.2770   -1.7549    1.5761 C.ar    1  UNL11      -0.0518
     22 C          -4.4167   -1.6892    2.3407 C.ar    1  UNL11      -0.0611
     23 C          -4.3676   -1.2309    3.6393 C.ar    1  UNL11      -0.0608
     24 C          -3.1753   -0.8288    4.2021 C.ar    1  UNL11      -0.0441
     25 C          -2.0331   -0.8943    3.4395 C.ar    1  UNL11       0.1004
     26 H           1.2141   -0.3002    3.7195 H       1  UNL11       0.4829
     27 H          -1.8710   -1.8098   -0.5080 H       1  UNL11       0.0379
     28 H          -0.6008   -2.9186   -0.0185 H       1  UNL11       0.0379
     29 H          -0.7988   -1.1482   -2.7213 H       1  UNL11       0.0621
     30 H           0.9256   -0.0481   -3.9466 H       1  UNL11       0.0646
     31 H           3.1128   -0.4464    1.7167 H       1  UNL11       0.0639
     32 H           5.2299    0.2770    2.7652 H       1  UNL11       0.0830
     33 H           6.5818    1.8334   -0.8395 H       1  UNL11       0.0830
     34 H           4.4797    1.1479   -1.9988 H       1  UNL11       0.0639
     35 H           1.4877   -0.9495    0.8226 H       1  UNL11       0.0627
     36 H          -3.3097   -2.1240    0.5900 H       1  UNL11       0.0624
     37 H          -5.3967   -1.9861    1.9777 H       1  UNL11       0.0618
     38 H          -5.2598   -1.1763    4.2477 H       1  UNL11       0.0618
     39 H          -3.0848   -0.4651    5.2138 H       1  UNL11       0.0627
@<TRIPOS>BOND
     1     1     2    2
     2     2     3   am
     3     3     4    1
     4     3    26    1
     5     4     5    2
     6     5     6    1
     7     5    20    1
     8     6     7    1
     9     6    27    1
    10     6    28    1
    11     7     8   ar
    12     8     9   ar
    13     8    29    1
    14     9    10   ar
    15     9    30    1
    16    10    11    1
    17    10    12   ar
    18    12    13    1
    19    12    19   ar
    20    13    14   ar
    21    14    15   ar
    22    14    31    1
    23    15    16   ar
    24    15    32    1
    25    16    17   ar
    26    17    18   ar
    27    17    33    1
    28    18    13   ar
    29    18    34    1
    30    19     7   ar
    31    19    35    1
    32    20    21   ar
    33    21    22   ar
    34    21    36    1
    35    22    23   ar
    36    22    37    1
    37    23    24   ar
    38    23    38    1
    39    24    25   ar
    40    24    39    1
    41    25     2    1
    42    25    20   ar
@<TRIPOS>MOLECULE
*****
 39 42 0 0 0
SMALL
GASTEIGER

@<TRIPOS>ATOM
      1 O          -5.6043   -3.1223   -2.5076 O.2     1  UNL11      -0.2116
      2 C          -4.5073   -2.8345   -1.9627 C.2     1  UNL11       0.4383
      3 N          -4.2761   -3.1150   -0.6722 N.am    1  UNL11      -0.0356
      4 N          -3.1372   -2.8036   -0.1430 N.2     1  UNL11      -0.0073
      5 C          -2.0942   -2.1911   -0.7845 C.2     1  UNL11       0.1192
      6 C          -0.8741   -1.8207   -0.0254 C.3     1  UNL11       0.0211
      7 C           0.1694   -1.1553   -0.8164 C.ar    1  UNL11      -0.0406
      8 C           0.0458   -0.8909   -2.1405 C.ar    1  UNL11      -0.0555
      9 C           1.0623   -0.2468   -2.8716 C.ar    1  UNL11      -0.0256
     10 C           2.2166    0.1324   -2.2528 C.ar    1  UNL11       0.1311
     11 F           3.2155    0.7574   -2.9462 F       1  UNL11      -0.2049
     12 C           2.3870   -0.1157   -0.9080 C.ar    1  UNL11       0.0177
     13 C           3.6222    0.2903   -0.2320 C.ar    1  UNL11      -0.0123
     14 C           4.3582    1.3751   -0.6368 C.ar    1  UNL11      -0.0358
     15 C           5.5309    1.7426    0.0221 C.ar    1  UNL11       0.0281
     16 N           5.9426    1.0128    1.0755 N.ar    1  UNL11      -0.2632
     17 C           5.2503   -0.0549    1.5020 C.ar    1  UNL11       0.0281
     18 C           4.0702   -0.4334    0.8474 C.ar    1  UNL11      -0.0358
     19 C           1.3764   -0.7435   -0.2325 C.ar    1  UNL11      -0.0477
     20 C          -2.2870   -1.8869   -2.1108 C.ar    1  UNL11       0.0192
     21 C          -1.2805   -1.2953   -2.8364 C.ar    1  UNL11      -0.0518
     22 C          -1.4998   -1.0239   -4.1654 C.ar    1  UNL11      -0.0611
     23 C          -2.7028   -1.3389   -4.7589 C.ar    1  UNL11      -0.0608
     24 C          -3.7136   -1.9340   -4.0349 C.ar    1  UNL11      -0.0441
     25 C          -3.4966   -2.2075   -2.7050 C.ar    1  UNL11       0.1004
     26 H          -5.0635   -3.5908   -0.1346 H       1  UNL11       0.4829
     27 H          -0.4932   -2.6489    0.6038 H       1  UNL11       0.0379
     28 H          -1.2190   -1.0554    0.7333 H       1  UNL11       0.0379
     29 H          -0.7988   -1.1482   -2.7213 H       1  UNL11       0.0621
     30 H           0.9256   -0.0481   -3.9466 H       1  UNL11       0.0646
     31 H           4.0619    1.9815   -1.4755 H       1  UNL11       0.0639
     32 H           6.1317    2.5859   -0.2691 H       1  UNL11       0.0830
     33 H           5.6336   -0.5961    2.3522 H       1  UNL11       0.0830
     34 H           3.5298   -1.2967    1.2050 H       1  UNL11       0.0639
     35 H           1.4877   -0.9495    0.8226 H       1  UNL11       0.0627
     36 H          -0.3543   -1.0735   -2.3864 H       1  UNL11       0.0624
     37 H          -0.7591   -0.5581   -4.8094 H       1  UNL11       0.0618
     38 H          -2.8833   -1.1289   -5.8041 H       1  UNL11       0.0618
     39 H          -4.6711   -2.2016   -4.4540 H       1  UNL11       0.0627
@<TRIPOS>BOND
     1     1     2    2
     2     2     3   am
     3     3     4    1
     4     3    26    1
     5     4     5    2
     6     5     6    1
     7     5    20    1
     8     6     7    1
     9     6    27    1
    10     6    28    1
    11     7     8   ar
    12     8     9   ar
    13     8    29    1
    14     9    10   ar
    15     9    30    1
    16    10    11    1
    17    10    12   ar
    18    12    13    1
    19    12    19   ar
    20    13    14   ar
    21    14    15   ar
    22    14    31    1
    23    15    16   ar
    24    15    32    1
    25    16    17   ar
    26    17    18   ar
    27    17    33    1
    28    18    13   ar
    29    18    34    1
    30    19     7   ar
    31    19    35    1
    32    20    21   ar
    33    21    22   ar
    34    21    36    1
    35    22    23   ar
    36    22    37    1
    37    23    24   ar
    38    23    38    1
    39    24    25   ar
    40    24    39    1
    41    25     2    1
    42    25    20   ar
@<TRIPOS>MOLECULE
*****
 39 42 0 0 0
SMALL
GASTEIGER

@<TRIPOS>ATOM
      1 O          -4.7481    1.5128    2.0020 O.2     1  UNL11      -0.2116
      2 C          -3.8436    0.7582    1.5595 C.2     1  UNL11       0.4383
      3 N          -3.5680    0.6962    0.2489 N.am    1  UNL11      -0.0356
      4 N          -2.6324   -0.0921   -0.1724 N.2     1  UNL11      -0.0073
      5 C          -1.8573   -0.9073    0.6080 C.2     1  UNL11       0.1192
      6 C          -0.8741   -1.8207   -0.0254 C.3     1  UNL11       0.0211
      7 C           0.1694   -1.1553   -0.8164 C.ar    1  UNL11      -0.0406
      8 C           0.0458   -0.8909   -2.1405 C.ar    1  UNL11      -0.0555
      9 C           1.0623   -0.2468   -2.8716 C.ar    1  UNL11      -0.0256
     10 C           2.2166    0.1324   -2.2528 C.ar    1  UNL11       0.1311
     11 F           3.2155    0.7574   -2.9462 F       1  UNL11      -0.2049
     12 C           2.3870   -0.1157   -0.9080 C.ar    1  UNL11       0.0177
     13 C           3.6222    0.2903   -0.2320 C.ar    1  UNL11      -0.0123
     14 C           3.6519    0.6425    1.0937 C.ar    1  UNL11      -0.0358
     15 C           4.8396    1.0256    1.7158 C.ar    1  UNL11       0.0281
     16 N           5.9755    1.0482    0.9941 N.ar    1  UNL11      -0.2632
     17 C           5.9876    0.7105   -0.3048 C.ar    1  UNL11       0.0281
     18 C           4.7997    0.3237   -0.9403 C.ar    1  UNL11      -0.0358
     19 C           1.3764   -0.7435   -0.2325 C.ar    1  UNL11      -0.0477
     20 C          -2.1044   -0.8741    1.9595 C.ar    1  UNL11       0.0192
     21 C          -1.3532   -1.6417    2.8174 C.ar    1  UNL11      -0.0518
     22 C          -1.6132   -1.5685    4.1646 C.ar    1  UNL11      -0.0611
     23 C          -2.6053   -0.7423    4.6460 C.ar    1  UNL11      -0.0608
     24 C          -3.3593    0.0304    3.7889 C.ar    1  UNL11      -0.0441
     25 C          -3.1006   -0.0403    2.4403 C.ar    1  UNL11       0.1004
     26 H          -4.1502    1.3141   -0.3950 H       1  UNL11       0.4829
     27 H          -1.3544   -2.6699   -0.5499 H       1  UNL11       0.0379
     28 H          -0.3355   -2.3186    0.8361 H       1  UNL11       0.0379
     29 H          -0.7988   -1.1482   -2.7213 H       1  UNL11       0.0621
     30 H           0.9256   -0.0481   -3.9466 H       1  UNL11       0.0646
     31 H           2.7641    0.6384    1.7025 H       1  UNL11       0.0639
     32 H           4.8983    1.3083    2.7519 H       1  UNL11       0.0830
     33 H           6.9308    0.7485   -0.8257 H       1  UNL11       0.0830
     34 H           4.8309    0.0583   -1.9863 H       1  UNL11       0.0639
     35 H           1.4877   -0.9495    0.8226 H       1  UNL11       0.0627
     36 H          -0.5816   -2.2575    2.4498 H       1  UNL11       0.0624
     37 H          -1.0678   -2.1412    4.9095 H       1  UNL11       0.0618
     38 H          -2.8161   -0.6788    5.7046 H       1  UNL11       0.0618
     39 H          -4.1446    0.6936    4.1167 H       1  UNL11       0.0627
@<TRIPOS>BOND
     1     1     2    2
     2     2     3   am
     3     3     4    1
     4     3    26    1
     5     4     5    2
     6     5     6    1
     7     5    20    1
     8     6     7    1
     9     6    27    1
    10     6    28    1
    11     7     8   ar
    12     8     9   ar
    13     8    29    1
    14     9    10   ar
    15     9    30    1
    16    10    11    1
    17    10    12   ar
    18    12    13    1
    19    12    19   ar
    20    13    14   ar
    21    14    15   ar
    22    14    31    1
    23    15    16   ar
    24    15    32    1
    25    16    17   ar
    26    17    18   ar
    27    17    33    1
    28    18    13   ar
    29    18    34    1
    30    19     7   ar
    31    19    35    1
    32    20    21   ar
    33    21    22   ar
    34    21    36    1
    35    22    23   ar
    36    22    37    1
    37    23    24   ar
    38    23    38    1
    39    24    25   ar
    40    24    39    1
    41    25     2    1
    42    25    20   ar
@<TRIPOS>MOLECULE
*****
 39 42 0 0 0
SMALL
GASTEIGER

@<TRIPOS>ATOM
      1 O           0.3866   -6.4806    2.6063 O.2     1  UNL11      -0.2116
      2 C           0.1214   -5.4179    1.9870 C.2     1  UNL11       0.4383
      3 N          -0.2391   -4.3035    2.6391 N.am    1  UNL11      -0.0356
      4 N          -0.5066   -3.2283    1.9709 N.2     1  UNL11      -0.0073
      5 C          -0.4604   -3.0969    0.6089 C.2     1  UNL11       0.1192
      6 C          -0.8741   -1.8207   -0.0254 C.3     1  UNL11       0.0211
      7 C           0.1694   -1.1553   -0.8164 C.ar    1  UNL11      -0.0406
      8 C           0.0458   -0.8909   -2.1405 C.ar    1  UNL11      -0.0555
      9 C           1.0623   -0.2468   -2.8716 C.ar    1  UNL11      -0.0256
     10 C           2.2166    0.1324   -2.2528 C.ar    1  UNL11       0.1311
     11 F           3.2155    0.7574   -2.9462 F       1  UNL11      -0.2049
     12 C           2.3870   -0.1157   -0.9080 C.ar    1  UNL11       0.0177
     13 C           3.6222    0.2903   -0.2320 C.ar    1  UNL11      -0.0123
     14 C           4.8275    0.3585   -0.8839 C.ar    1  UNL11      -0.0358
     15 C           5.9902    0.7476   -0.2196 C.ar    1  UNL11       0.0281
     16 N           5.9203    1.0606    1.0876 N.ar    1  UNL11      -0.2632
     17 C           4.7602    1.0065    1.7602 C.ar    1  UNL11       0.0281
     18 C           3.5853    0.6169    1.1027 C.ar    1  UNL11      -0.0358
     19 C           1.3764   -0.7435   -0.2325 C.ar    1  UNL11      -0.0477
     20 C          -0.0931   -4.2153   -0.1004 C.ar    1  UNL11       0.0192
     21 C           0.0046   -4.1622   -1.4705 C.ar    1  UNL11      -0.0518
     22 C           0.3946   -5.2931   -2.1464 C.ar    1  UNL11      -0.0611
     23 C           0.6829   -6.4558   -1.4655 C.ar    1  UNL11      -0.0608
     24 C           0.5880   -6.5121   -0.0915 C.ar    1  UNL11      -0.0441
     25 C           0.1987   -5.3817    0.5876 C.ar    1  UNL11       0.1004
     26 H          -0.2896   -4.3628    3.7018 H       1  UNL11       0.4829
     27 H          -1.3977   -1.1431    0.6772 H       1  UNL11       0.0379
     28 H          -1.6833   -2.1059   -0.7630 H       1  UNL11       0.0379
     29 H          -0.7988   -1.1482   -2.7213 H       1  UNL11       0.0621
     30 H           0.9256   -0.0481   -3.9466 H       1  UNL11       0.0646
     31 H           4.9232    0.1143   -1.9279 H       1  UNL11       0.0639
     32 H           6.9507    0.8110   -0.6996 H       1  UNL11       0.0830
     33 H           4.7719    1.2709    2.8055 H       1  UNL11       0.0830
     34 H           2.6632    0.5777    1.6627 H       1  UNL11       0.0639
     35 H           1.4877   -0.9495    0.8226 H       1  UNL11       0.0627
     36 H          -0.1966   -3.2671   -1.9880 H       1  UNL11       0.0624
     37 H           0.4962   -5.3370   -3.2272 H       1  UNL11       0.0618
     38 H           0.9907   -7.3499   -1.9898 H       1  UNL11       0.0618
     39 H           0.8049   -7.3968    0.4867 H       1  UNL11       0.0627
@<TRIPOS>BOND
     1     1     2    2
     2     2     3   am
     3     3     4    1
     4     3    26    1
     5     4     5    2
     6     5     6    1
     7     5    20    1
     8     6     7    1
     9     6    27    1
    10     6    28    1
    11     7     8   ar
    12     8     9   ar
    13     8    29    1
    14     9    10   ar
    15     9    30    1
    16    10    11    1
    17    10    12   ar
    18    12    13    1
    19    12    19   ar
    20    13    14   ar
    21    14    15   ar
    22    14    31    1
    23    15    16   ar
    24    15    32    1
    25    16    17   ar
    26    17    18   ar
    27    17    33    1
    28    18    13   ar
    29    18    34    1
    30    19     7   ar
    31    19    35    1
    32    20    21   ar
    33    21    22   ar
    34    21    36    1
    35    22    23   ar
    36    22    37    1
    37    23    24   ar
    38    23    38    1
    39    24    25   ar
    40    24    39    1
    41    25     2    1
    42    25    20   ar
@<TRIPOS>MOLECULE
*****
 39 42 0 0 0
SMALL
GASTEIGER

@<TRIPOS>ATOM
      1 O           0.3849   -6.7319    2.1018 O.2     1  UNL11      -0.2116
      2 C           0.1136   -5.5953    1.6352 C.2     1  UNL11       0.4383
      3 N          -1.1403   -5.2629    1.2963 N.am    1  UNL11      -0.0356
      4 N          -1.3839   -4.0859    0.8175 N.2     1  UNL11      -0.0073
      5 C          -0.4604   -3.0969    0.6089 C.2     1  UNL11       0.1192
      6 C          -0.8741   -1.8207   -0.0254 C.3     1  UNL11       0.0211
      7 C           0.1694   -1.1553   -0.8164 C.ar    1  UNL11      -0.0406
      8 C           0.0458   -0.8909   -2.1405 C.ar    1  UNL11      -0.0555
      9 C           1.0623   -0.2468   -2.8716 C.ar    1  UNL11      -0.0256
     10 C           2.2166    0.1324   -2.2528 C.ar    1  UNL11       0.1311
     11 F           3.2155    0.7574   -2.9462 F       1  UNL11      -0.2049
     12 C           2.3870   -0.1157   -0.9080 C.ar    1  UNL11       0.0177
     13 C           3.6222    0.2903   -0.2320 C.ar    1  UNL11      -0.0123
     14 C           4.3582    1.3751   -0.6368 C.ar    1  UNL11      -0.0358
     15 C           5.5309    1.7426    0.0221 C.ar    1  UNL11       0.0281
     16 N           5.9426    1.0128    1.0755 N.ar    1  UNL11      -0.2632
     17 C           5.2503   -0.0549    1.5020 C.ar    1  UNL11       0.0281
     18 C           4.0702   -0.4334    0.8474 C.ar    1  UNL11      -0.0358
     19 C           1.3764   -0.7435   -0.2325 C.ar    1  UNL11      -0.0477
     20 C           0.8388   -3.3938    0.9447 C.ar    1  UNL11       0.0192
     21 C           1.8243   -2.4478    0.7921 C.ar    1  UNL11      -0.0518
     22 C           3.1088   -2.7713    1.1572 C.ar    1  UNL11      -0.0611
     23 C           3.4031   -4.0174    1.6666 C.ar    1  UNL11      -0.0608
     24 C           2.4170   -4.9678    1.8228 C.ar    1  UNL11      -0.0441
     25 C           1.1305   -4.6465    1.4591 C.ar    1  UNL11       0.1004
     26 H          -1.8907   -6.0055    1.4411 H       1  UNL11       0.4829
     27 H          -1.3977   -1.1431    0.6772 H       1  UNL11       0.0379
     28 H          -1.6833   -2.1059   -0.7630 H       1  UNL11       0.0379
     29 H          -0.7988   -1.1482   -2.7213 H       1  UNL11       0.0621
     30 H           0.9256   -0.0481   -3.9466 H       1  UNL11       0.0646
     31 H           4.0619    1.9815   -1.4755 H       1  UNL11       0.0639
     32 H           6.1317    2.5859   -0.2691 H       1  UNL11       0.0830
     33 H           5.6336   -0.5961    2.3522 H       1  UNL11       0.0830
     34 H           3.5298   -1.2967    1.2050 H       1  UNL11       0.0639
     35 H           1.4877   -0.9495    0.8226 H       1  UNL11       0.0627
     36 H           1.5943   -1.4889    0.4216 H       1  UNL11       0.0624
     37 H           3.9454   -2.0838    1.0687 H       1  UNL11       0.0618
     38 H           4.4111   -4.2798    1.9565 H       1  UNL11       0.0618
     39 H           2.5963   -5.9553    2.2186 H       1  UNL11       0.0627
@<TRIPOS>BOND
     1     1     2    2
     2     2     3   am
     3     3     4    1
     4     3    26    1
     5     4     5    2
     6     5     6    1
     7     5    20    1
     8     6     7    1
     9     6    27    1
    10     6    28    1
    11     7     8   ar
    12     8     9   ar
    13     8    29    1
    14     9    10   ar
    15     9    30    1
    16    10    11    1
    17    10    12   ar
    18    12    13    1
    19    12    19   ar
    20    13    14   ar
    21    14    15   ar
    22    14    31    1
    23    15    16   ar
    24    15    32    1
    25    16    17   ar
    26    17    18   ar
    27    17    33    1
    28    18    13   ar
    29    18    34    1
    30    19     7   ar
    31    19    35    1
    32    20    21   ar
    33    21    22   ar
    34    21    36    1
    35    22    23   ar
    36    22    37    1
    37    23    24   ar
    38    23    38    1
    39    24    25   ar
    40    24    39    1
    41    25     2    1
    42    25    20   ar
@<TRIPOS>MOLECULE
*****
 39 42 0 0 0
SMALL
GASTEIGER

@<TRIPOS>ATOM
      1 O          -5.6718    0.8198    0.4643 O.2     1  UNL11      -0.2116
      2 C          -4.5808    0.2087    0.3248 C.2     1  UNL11       0.4383
      3 N          -4.1192   -0.6176    1.2742 N.am    1  UNL11      -0.0356
      4 N          -2.9923   -1.2288    1.0990 N.2     1  UNL11      -0.0073
      5 C          -2.1819   -1.1199    0.0009 C.2     1  UNL11       0.1192
      6 C          -0.8741   -1.8207   -0.0254 C.3     1  UNL11       0.0211
      7 C           0.1694   -1.1553   -0.8164 C.ar    1  UNL11      -0.0406
      8 C           0.0458   -0.8909   -2.1405 C.ar    1  UNL11      -0.0555
      9 C           1.0623   -0.2468   -2.8716 C.ar    1  UNL11      -0.0256
     10 C           2.2166    0.1324   -2.2528 C.ar    1  UNL11       0.1311
     11 F           3.2155    0.7574   -2.9462 F       1  UNL11      -0.2049
     12 C           2.3870   -0.1157   -0.9080 C.ar    1  UNL11       0.0177
     13 C           3.6222    0.2903   -0.2320 C.ar    1  UNL11      -0.0123
     14 C           4.8275    0.3585   -0.8839 C.ar    1  UNL11      -0.0358
     15 C           5.9902    0.7476   -0.2196 C.ar    1  UNL11       0.0281
     16 N           5.9203    1.0606    1.0876 N.ar    1  UNL11      -0.2632
     17 C           4.7602    1.0065    1.7602 C.ar    1  UNL11       0.0281
     18 C           3.5853    0.6169    1.1027 C.ar    1  UNL11      -0.0358
     19 C           1.3764   -0.7435   -0.2325 C.ar    1  UNL11      -0.0477
     20 C          -2.6177   -0.2840   -0.9992 C.ar    1  UNL11       0.0192
     21 C          -1.8772   -0.1381   -2.1481 C.ar    1  UNL11      -0.0518
     22 C          -2.3527    0.6896   -3.1364 C.ar    1  UNL11      -0.0611
     23 C          -3.5471    1.3586   -2.9800 C.ar    1  UNL11      -0.0608
     24 C          -4.2933    1.2130   -1.8301 C.ar    1  UNL11      -0.0441
     25 C          -3.8203    0.3848   -0.8398 C.ar    1  UNL11       0.1004
     26 H          -4.7191   -0.7299    2.1477 H       1  UNL11       0.4829
     27 H          -0.9722   -2.9027   -0.2415 H       1  UNL11       0.0379
     28 H          -0.5070   -1.8018    1.0447 H       1  UNL11       0.0379
     29 H          -0.7988   -1.1482   -2.7213 H       1  UNL11       0.0621
     30 H           0.9256   -0.0481   -3.9466 H       1  UNL11       0.0646
     31 H           4.9232    0.1143   -1.9279 H       1  UNL11       0.0639
     32 H           6.9507    0.8110   -0.6996 H       1  UNL11       0.0830
     33 H           4.7719    1.2709    2.8055 H       1  UNL11       0.0830
     34 H           2.6632    0.5777    1.6627 H       1  UNL11       0.0639
     35 H           1.4877   -0.9495    0.8226 H       1  UNL11       0.0627
     36 H          -0.9743   -0.6658   -2.2746 H       1  UNL11       0.0624
     37 H          -1.8304    0.8612   -4.0735 H       1  UNL11       0.0618
     38 H          -3.9284    2.0114   -3.7529 H       1  UNL11       0.0618
     39 H          -5.2345    1.7128   -1.6613 H       1  UNL11       0.0627
@<TRIPOS>BOND
     1     1     2    2
     2     2     3   am
     3     3     4    1
     4     3    26    1
     5     4     5    2
     6     5     6    1
     7     5    20    1
     8     6     7    1
     9     6    27    1
    10     6    28    1
    11     7     8   ar
    12     8     9   ar
    13     8    29    1
    14     9    10   ar
    15     9    30    1
    16    10    11    1
    17    10    12   ar
    18    12    13    1
    19    12    19   ar
    20    13    14   ar
    21    14    15   ar
    22    14    31    1
    23    15    16   ar
    24    15    32    1
    25    16    17   ar
    26    17    18   ar
    27    17    33    1
    28    18    13   ar
    29    18    34    1
    30    19     7   ar
    31    19    35    1
    32    20    21   ar
    33    21    22   ar
    34    21    36    1
    35    22    23   ar
    36    22    37    1
    37    23    24   ar
    38    23    38    1
    39    24    25   ar
    40    24    39    1
    41    25     2    1
    42    25    20   ar
@<TRIPOS>MOLECULE
*****
 39 42 0 0 0
SMALL
GASTEIGER

@<TRIPOS>ATOM
      1 O          -5.9491   -0.5687   -1.7304 O.2     1  UNL11      -0.2116
      2 C          -4.7953   -0.8833   -1.3393 C.2     1  UNL11       0.4383
      3 N          -4.1671   -0.1798   -0.3865 N.am    1  UNL11      -0.0356
      4 N          -2.9801   -0.5299   -0.0091 N.2     1  UNL11      -0.0073
      5 C          -2.2615   -1.5879   -0.4977 C.2     1  UNL11       0.1192
      6 C          -0.8741   -1.8207   -0.0254 C.3     1  UNL11       0.0211
      7 C           0.1694   -1.1553   -0.8164 C.ar    1  UNL11      -0.0406
      8 C           0.0458   -0.8909   -2.1405 C.ar    1  UNL11      -0.0555
      9 C           1.0623   -0.2468   -2.8716 C.ar    1  UNL11      -0.0256
     10 C           2.2166    0.1324   -2.2528 C.ar    1  UNL11       0.1311
     11 F           3.2155    0.7574   -2.9462 F       1  UNL11      -0.2049
     12 C           2.3870   -0.1157   -0.9080 C.ar    1  UNL11       0.0177
     13 C           3.6222    0.2903   -0.2320 C.ar    1  UNL11      -0.0123
     14 C           4.8275    0.3585   -0.8839 C.ar    1  UNL11      -0.0358
     15 C           5.9902    0.7476   -0.2196 C.ar    1  UNL11       0.0281
     16 N           5.9203    1.0606    1.0876 N.ar    1  UNL11      -0.2632
     17 C           4.7602    1.0065    1.7602 C.ar    1  UNL11       0.0281
     18 C           3.5853    0.6169    1.1027 C.ar    1  UNL11      -0.0358
     19 C           1.3764   -0.7435   -0.2325 C.ar    1  UNL11      -0.0477
     20 C          -2.8686   -2.3388   -1.4757 C.ar    1  UNL11       0.0192
     21 C          -2.2273   -3.4351   -2.0017 C.ar    1  UNL11      -0.0518
     22 C          -2.8718   -4.1756   -2.9630 C.ar    1  UNL11      -0.0611
     23 C          -4.1348   -3.8276   -3.3903 C.ar    1  UNL11      -0.0608
     24 C          -4.7816   -2.7302   -2.8637 C.ar    1  UNL11      -0.0441
     25 C          -4.1393   -1.9878   -1.9009 C.ar    1  UNL11       0.1004
     26 H          -4.6910    0.6543    0.0201 H       1  UNL11       0.4829
     27 H          -0.6639   -2.8894    0.1763 H       1  UNL11       0.0379
     28 H          -0.8285   -1.3486    1.0019 H       1  UNL11       0.0379
     29 H          -0.7988   -1.1482   -2.7213 H       1  UNL11       0.0621
     30 H           0.9256   -0.0481   -3.9466 H       1  UNL11       0.0646
     31 H           4.9232    0.1143   -1.9279 H       1  UNL11       0.0639
     32 H           6.9507    0.8110   -0.6996 H       1  UNL11       0.0830
     33 H           4.7719    1.2709    2.8055 H       1  UNL11       0.0830
     34 H           2.6632    0.5777    1.6627 H       1  UNL11       0.0639
     35 H           1.4877   -0.9495    0.8226 H       1  UNL11       0.0627
     36 H          -1.2702   -3.7116   -1.6596 H       1  UNL11       0.0624
     37 H          -2.4368   -5.0546   -3.4304 H       1  UNL11       0.0618
     38 H          -4.6489   -4.4051   -4.1461 H       1  UNL11       0.0618
     39 H          -5.7702   -2.4186   -3.1632 H       1  UNL11       0.0627
@<TRIPOS>BOND
     1     1     2    2
     2     2     3   am
     3     3     4    1
     4     3    26    1
     5     4     5    2
     6     5     6    1
     7     5    20    1
     8     6     7    1
     9     6    27    1
    10     6    28    1
    11     7     8   ar
    12     8     9   ar
    13     8    29    1
    14     9    10   ar
    15     9    30    1
    16    10    11    1
    17    10    12   ar
    18    12    13    1
    19    12    19   ar
    20    13    14   ar
    21    14    15   ar
    22    14    31    1
    23    15    16   ar
    24    15    32    1
    25    16    17   ar
    26    17    18   ar
    27    17    33    1
    28    18    13   ar
    29    18    34    1
    30    19     7   ar
    31    19    35    1
    32    20    21   ar
    33    21    22   ar
    34    21    36    1
    35    22    23   ar
    36    22    37    1
    37    23    24   ar
    38    23    38    1
    39    24    25   ar
    40    24    39    1
    41    25     2    1
    42    25    20   ar
@<TRIPOS>MOLECULE
*****
 39 42 0 0 0
SMALL
GASTEIGER

@<TRIPOS>ATOM
      1 O          -5.5358   -2.8294   -2.7606 O.2     1  UNL11      -0.2116
      2 C          -4.4620   -2.6268   -2.1368 C.2     1  UNL11       0.4383
      3 N          -4.4303   -1.8641   -1.0347 N.am    1  UNL11      -0.0356
      4 N          -3.3084   -1.6750   -0.4185 N.2     1  UNL11      -0.0073
      5 C          -2.0942   -2.1911   -0.7845 C.2     1  UNL11       0.1192
      6 C          -0.8741   -1.8207   -0.0254 C.3     1  UNL11       0.0211
      7 C           0.1694   -1.1553   -0.8164 C.ar    1  UNL11      -0.0406
      8 C           0.0458   -0.8909   -2.1405 C.ar    1  UNL11      -0.0555
      9 C           1.0623   -0.2468   -2.8716 C.ar    1  UNL11      -0.0256
     10 C           2.2166    0.1324   -2.2528 C.ar    1  UNL11       0.1311
     11 F           3.2155    0.7574   -2.9462 F       1  UNL11      -0.2049
     12 C           2.3870   -0.1157   -0.9080 C.ar    1  UNL11       0.0177
     13 C           3.6222    0.2903   -0.2320 C.ar    1  UNL11      -0.0123
     14 C           4.3582    1.3751   -0.6368 C.ar    1  UNL11      -0.0358
     15 C           5.5309    1.7426    0.0221 C.ar    1  UNL11       0.0281
     16 N           5.9426    1.0128    1.0755 N.ar    1  UNL11      -0.2632
     17 C           5.2503   -0.0549    1.5020 C.ar    1  UNL11       0.0281
     18 C           4.0702   -0.4334    0.8474 C.ar    1  UNL11      -0.0358
     19 C           1.3764   -0.7435   -0.2325 C.ar    1  UNL11      -0.0477
     20 C          -2.0805   -2.9815   -1.9087 C.ar    1  UNL11       0.0192
     21 C          -0.9076   -3.5613   -2.3302 C.ar    1  UNL11      -0.0518
     22 C          -0.9338   -4.3626   -3.4461 C.ar    1  UNL11      -0.0611
     23 C          -2.1111   -4.5814   -4.1279 C.ar    1  UNL11      -0.0608
     24 C          -3.2895   -4.0032   -3.7070 C.ar    1  UNL11      -0.0441
     25 C          -3.2663   -3.2016   -2.5901 C.ar    1  UNL11       0.1004
     26 H          -5.3546   -1.4407   -0.7157 H       1  UNL11       0.4829
     27 H          -0.4932   -2.6489    0.6038 H       1  UNL11       0.0379
     28 H          -1.2190   -1.0554    0.7333 H       1  UNL11       0.0379
     29 H          -0.7988   -1.1482   -2.7213 H       1  UNL11       0.0621
     30 H           0.9256   -0.0481   -3.9466 H       1  UNL11       0.0646
     31 H           4.0619    1.9815   -1.4755 H       1  UNL11       0.0639
     32 H           6.1317    2.5859   -0.2691 H       1  UNL11       0.0830
     33 H           5.6336   -0.5961    2.3522 H       1  UNL11       0.0830
     34 H           3.5298   -1.2967    1.2050 H       1  UNL11       0.0639
     35 H           1.4877   -0.9495    0.8226 H       1  UNL11       0.0627
     36 H          -0.0123   -3.4095   -1.7963 H       1  UNL11       0.0624
     37 H          -0.0532   -4.8574   -3.8462 H       1  UNL11       0.0618
     38 H          -2.1403   -5.2107   -5.0067 H       1  UNL11       0.0618
     39 H          -4.2361   -4.1455   -4.2047 H       1  UNL11       0.0627
@<TRIPOS>BOND
     1     1     2    2
     2     2     3   am
     3     3     4    1
     4     3    26    1
     5     4     5    2
     6     5     6    1
     7     5    20    1
     8     6     7    1
     9     6    27    1
    10     6    28    1
    11     7     8   ar
    12     8     9   ar
    13     8    29    1
    14     9    10   ar
    15     9    30    1
    16    10    11    1
    17    10    12   ar
    18    12    13    1
    19    12    19   ar
    20    13    14   ar
    21    14    15   ar
    22    14    31    1
    23    15    16   ar
    24    15    32    1
    25    16    17   ar
    26    17    18   ar
    27    17    33    1
    28    18    13   ar
    29    18    34    1
    30    19     7   ar
    31    19    35    1
    32    20    21   ar
    33    21    22   ar
    34    21    36    1
    35    22    23   ar
    36    22    37    1
    37    23    24   ar
    38    23    38    1
    39    24    25   ar
    40    24    39    1
    41    25     2    1
    42    25    20   ar
@<TRIPOS>MOLECULE
*****
 39 42 0 0 0
SMALL
GASTEIGER

@<TRIPOS>ATOM
      1 O           0.6712   -5.0816    4.1230 O.2     1  UNL11      -0.2116
      2 C           0.3372   -4.3156    3.1822 C.2     1  UNL11       0.4383
      3 N          -0.9520   -4.1025    2.8822 N.am    1  UNL11      -0.0356
      4 N          -1.2603   -3.3099    1.9071 N.2     1  UNL11      -0.0073
      5 C          -0.3749   -2.6338    1.1112 C.2     1  UNL11       0.1192
      6 C          -0.8741   -1.8207   -0.0254 C.3     1  UNL11       0.0211
      7 C           0.1694   -1.1553   -0.8164 C.ar    1  UNL11      -0.0406
      8 C           0.0458   -0.8909   -2.1405 C.ar    1  UNL11      -0.0555
      9 C           1.0623   -0.2468   -2.8716 C.ar    1  UNL11      -0.0256
     10 C           2.2166    0.1324   -2.2528 C.ar    1  UNL11       0.1311
     11 F           3.2155    0.7574   -2.9462 F       1  UNL11      -0.2049
     12 C           2.3870   -0.1157   -0.9080 C.ar    1  UNL11       0.0177
     13 C           3.6222    0.2903   -0.2320 C.ar    1  UNL11      -0.0123
     14 C           4.1314   -0.3960    0.8413 C.ar    1  UNL11      -0.0358
     15 C           5.3088    0.0092    1.4688 C.ar    1  UNL11       0.0281
     16 N           5.9527    1.0970    1.0065 N.ar    1  UNL11      -0.2632
     17 C           5.4868    1.7948   -0.0410 C.ar    1  UNL11       0.0281
     18 C           4.3044    1.3966   -0.6795 C.ar    1  UNL11      -0.0358
     19 C           1.3764   -0.7435   -0.2325 C.ar    1  UNL11      -0.0477
     20 C           0.9587   -2.8214    1.3849 C.ar    1  UNL11       0.0192
     21 C           1.9136   -2.1590    0.6507 C.ar    1  UNL11      -0.0518
     22 C           3.2370   -2.3537    0.9648 C.ar    1  UNL11      -0.0611
     23 C           3.5997   -3.1944    1.9946 C.ar    1  UNL11      -0.0608
     24 C           2.6448   -3.8587    2.7342 C.ar    1  UNL11      -0.0441
     25 C           1.3197   -3.6650    2.4226 C.ar    1  UNL11       0.1004
     26 H          -1.6750   -4.6116    3.4768 H       1  UNL11       0.4829
     27 H          -1.7084   -1.1507    0.2610 H       1  UNL11       0.0379
     28 H          -1.3647   -2.5616   -0.7259 H       1  UNL11       0.0379
     29 H          -0.7988   -1.1482   -2.7213 H       1  UNL11       0.0621
     30 H           0.9256   -0.0481   -3.9466 H       1  UNL11       0.0646
     31 H           3.6440   -1.2690    1.2403 H       1  UNL11       0.0639
     32 H           5.7349   -0.5049    2.3121 H       1  UNL11       0.0830
     33 H           6.0505    2.6558   -0.3627 H       1  UNL11       0.0830
     34 H           3.9456    1.9732   -1.5187 H       1  UNL11       0.0639
     35 H           1.4877   -0.9495    0.8226 H       1  UNL11       0.0627
     36 H           1.6342   -1.5011   -0.1230 H       1  UNL11       0.0624
     37 H           4.0533   -1.8704    0.4352 H       1  UNL11       0.0618
     38 H           4.6388   -3.3528    2.2483 H       1  UNL11       0.0618
     39 H           2.8778   -4.5247    3.5504 H       1  UNL11       0.0627
@<TRIPOS>BOND
     1     1     2    2
     2     2     3   am
     3     3     4    1
     4     3    26    1
     5     4     5    2
     6     5     6    1
     7     5    20    1
     8     6     7    1
     9     6    27    1
    10     6    28    1
    11     7     8   ar
    12     8     9   ar
    13     8    29    1
    14     9    10   ar
    15     9    30    1
    16    10    11    1
    17    10    12   ar
    18    12    13    1
    19    12    19   ar
    20    13    14   ar
    21    14    15   ar
    22    14    31    1
    23    15    16   ar
    24    15    32    1
    25    16    17   ar
    26    17    18   ar
    27    17    33    1
    28    18    13   ar
    29    18    34    1
    30    19     7   ar
    31    19    35    1
    32    20    21   ar
    33    21    22   ar
    34    21    36    1
    35    22    23   ar
    36    22    37    1
    37    23    24   ar
    38    23    38    1
    39    24    25   ar
    40    24    39    1
    41    25     2    1
    42    25    20   ar
@<TRIPOS>MOLECULE
*****
 39 42 0 0 0
SMALL
GASTEIGER

@<TRIPOS>ATOM
      1 O          -4.8031    1.3648    2.1300 O.2     1  UNL11      -0.2116
      2 C          -3.8838    0.6540    1.6473 C.2     1  UNL11       0.4383
      3 N          -3.9625    0.1659    0.4012 N.am    1  UNL11      -0.0356
      4 N          -2.9999   -0.5632   -0.0632 N.2     1  UNL11      -0.0073
      5 C          -1.8573   -0.9073    0.6080 C.2     1  UNL11       0.1192
      6 C          -0.8741   -1.8207   -0.0254 C.3     1  UNL11       0.0211
      7 C           0.1694   -1.1553   -0.8164 C.ar    1  UNL11      -0.0406
      8 C           0.0458   -0.8909   -2.1405 C.ar    1  UNL11      -0.0555
      9 C           1.0623   -0.2468   -2.8716 C.ar    1  UNL11      -0.0256
     10 C           2.2166    0.1324   -2.2528 C.ar    1  UNL11       0.1311
     11 F           3.2155    0.7574   -2.9462 F       1  UNL11      -0.2049
     12 C           2.3870   -0.1157   -0.9080 C.ar    1  UNL11       0.0177
     13 C           3.6222    0.2903   -0.2320 C.ar    1  UNL11      -0.0123
     14 C           4.1314   -0.3960    0.8413 C.ar    1  UNL11      -0.0358
     15 C           5.3088    0.0092    1.4688 C.ar    1  UNL11       0.0281
     16 N           5.9527    1.0970    1.0065 N.ar    1  UNL11      -0.2632
     17 C           5.4868    1.7948   -0.0410 C.ar    1  UNL11       0.0281
     18 C           4.3044    1.3966   -0.6795 C.ar    1  UNL11      -0.0358
     19 C           1.3764   -0.7435   -0.2325 C.ar    1  UNL11      -0.0477
     20 C          -1.7336   -0.4263    1.8895 C.ar    1  UNL11       0.0192
     21 C          -0.6050   -0.7024    2.6242 C.ar    1  UNL11      -0.0518
     22 C          -0.5051   -0.1883    3.8944 C.ar    1  UNL11      -0.0611
     23 C          -1.5141    0.5885    4.4208 C.ar    1  UNL11      -0.0608
     24 C          -2.6463    0.8691    3.6862 C.ar    1  UNL11      -0.0441
     25 C          -2.7486    0.3566    2.4144 C.ar    1  UNL11       0.1004
     26 H          -4.8376    0.4085   -0.1563 H       1  UNL11       0.4829
     27 H          -1.3544   -2.6699   -0.5499 H       1  UNL11       0.0379
     28 H          -0.3355   -2.3186    0.8361 H       1  UNL11       0.0379
     29 H          -0.7988   -1.1482   -2.7213 H       1  UNL11       0.0621
     30 H           0.9256   -0.0481   -3.9466 H       1  UNL11       0.0646
     31 H           3.6440   -1.2690    1.2403 H       1  UNL11       0.0639
     32 H           5.7349   -0.5049    2.3121 H       1  UNL11       0.0830
     33 H           6.0505    2.6558   -0.3627 H       1  UNL11       0.0830
     34 H           3.9456    1.9732   -1.5187 H       1  UNL11       0.0639
     35 H           1.4877   -0.9495    0.8226 H       1  UNL11       0.0627
     36 H           0.1744   -1.2795    2.2131 H       1  UNL11       0.0624
     37 H           0.3510   -0.3586    4.5413 H       1  UNL11       0.0618
     38 H          -1.4431    0.9970    5.4193 H       1  UNL11       0.0618
     39 H          -3.4617    1.4732    4.0525 H       1  UNL11       0.0627
@<TRIPOS>BOND
     1     1     2    2
     2     2     3   am
     3     3     4    1
     4     3    26    1
     5     4     5    2
     6     5     6    1
     7     5    20    1
     8     6     7    1
     9     6    27    1
    10     6    28    1
    11     7     8   ar
    12     8     9   ar
    13     8    29    1
    14     9    10   ar
    15     9    30    1
    16    10    11    1
    17    10    12   ar
    18    12    13    1
    19    12    19   ar
    20    13    14   ar
    21    14    15   ar
    22    14    31    1
    23    15    16   ar
    24    15    32    1
    25    16    17   ar
    26    17    18   ar
    27    17    33    1
    28    18    13   ar
    29    18    34    1
    30    19     7   ar
    31    19    35    1
    32    20    21   ar
    33    21    22   ar
    34    21    36    1
    35    22    23   ar
    36    22    37    1
    37    23    24   ar
    38    23    38    1
    39    24    25   ar
    40    24    39    1
    41    25     2    1
    42    25    20   ar
@<TRIPOS>MOLECULE
*****
 39 42 0 0 0
SMALL
GASTEIGER

@<TRIPOS>ATOM
      1 O          -5.4509   -3.4869   -2.5762 O.2     1  UNL11      -0.2116
      2 C          -4.3979   -3.0878   -2.0148 C.2     1  UNL11       0.4383
      3 N          -3.5512   -3.9477   -1.4311 N.am    1  UNL11      -0.0356
      4 N          -2.4782   -3.5030   -0.8611 N.2     1  UNL11      -0.0073
      5 C          -2.0942   -2.1911   -0.7845 C.2     1  UNL11       0.1192
      6 C          -0.8741   -1.8207   -0.0254 C.3     1  UNL11       0.0211
      7 C           0.1694   -1.1553   -0.8164 C.ar    1  UNL11      -0.0406
      8 C           0.0458   -0.8909   -2.1405 C.ar    1  UNL11      -0.0555
      9 C           1.0623   -0.2468   -2.8716 C.ar    1  UNL11      -0.0256
     10 C           2.2166    0.1324   -2.2528 C.ar    1  UNL11       0.1311
     11 F           3.2155    0.7574   -2.9462 F       1  UNL11      -0.2049
     12 C           2.3870   -0.1157   -0.9080 C.ar    1  UNL11       0.0177
     13 C           3.6222    0.2903   -0.2320 C.ar    1  UNL11      -0.0123
     14 C           4.3582    1.3751   -0.6368 C.ar    1  UNL11      -0.0358
     15 C           5.5309    1.7426    0.0221 C.ar    1  UNL11       0.0281
     16 N           5.9426    1.0128    1.0755 N.ar    1  UNL11      -0.2632
     17 C           5.2503   -0.0549    1.5020 C.ar    1  UNL11       0.0281
     18 C           4.0702   -0.4334    0.8474 C.ar    1  UNL11      -0.0358
     19 C           1.3764   -0.7435   -0.2325 C.ar    1  UNL11      -0.0477
     20 C          -2.9325   -1.2742   -1.3722 C.ar    1  UNL11       0.0192
     21 C          -2.6083    0.0616   -1.3643 C.ar    1  UNL11      -0.0518
     22 C          -3.4587    0.9485   -1.9792 C.ar    1  UNL11      -0.0611
     23 C          -4.6118    0.5085   -2.5919 C.ar    1  UNL11      -0.0608
     24 C          -4.9391   -0.8305   -2.6035 C.ar    1  UNL11      -0.0441
     25 C          -4.0895   -1.7203   -1.9896 C.ar    1  UNL11       0.1004
     26 H          -3.8135   -4.9799   -1.4661 H       1  UNL11       0.4829
     27 H          -0.4932   -2.6489    0.6038 H       1  UNL11       0.0379
     28 H          -1.2190   -1.0554    0.7333 H       1  UNL11       0.0379
     29 H          -0.7988   -1.1482   -2.7213 H       1  UNL11       0.0621
     30 H           0.9256   -0.0481   -3.9466 H       1  UNL11       0.0646
     31 H           4.0619    1.9815   -1.4755 H       1  UNL11       0.0639
     32 H           6.1317    2.5859   -0.2691 H       1  UNL11       0.0830
     33 H           5.6336   -0.5961    2.3522 H       1  UNL11       0.0830
     34 H           3.5298   -1.2967    1.2050 H       1  UNL11       0.0639
     35 H           1.4877   -0.9495    0.8226 H       1  UNL11       0.0627
     36 H          -1.7164    0.3941   -0.9132 H       1  UNL11       0.0624
     37 H          -3.2780    2.0191   -2.0181 H       1  UNL11       0.0618
     38 H          -5.2861    1.1999   -3.0782 H       1  UNL11       0.0618
     39 H          -5.8281   -1.2242   -3.0711 H       1  UNL11       0.0627
@<TRIPOS>BOND
     1     1     2    2
     2     2     3   am
     3     3     4    1
     4     3    26    1
     5     4     5    2
     6     5     6    1
     7     5    20    1
     8     6     7    1
     9     6    27    1
    10     6    28    1
    11     7     8   ar
    12     8     9   ar
    13     8    29    1
    14     9    10   ar
    15     9    30    1
    16    10    11    1
    17    10    12   ar
    18    12    13    1
    19    12    19   ar
    20    13    14   ar
    21    14    15   ar
    22    14    31    1
    23    15    16   ar
    24    15    32    1
    25    16    17   ar
    26    17    18   ar
    27    17    33    1
    28    18    13   ar
    29    18    34    1
    30    19     7   ar
    31    19    35    1
    32    20    21   ar
    33    21    22   ar
    34    21    36    1
    35    22    23   ar
    36    22    37    1
    37    23    24   ar
    38    23    38    1
    39    24    25   ar
    40    24    39    1
    41    25     2    1
    42    25    20   ar
@<TRIPOS>MOLECULE
*****
 39 42 0 0 0
SMALL
GASTEIGER

@<TRIPOS>ATOM
      1 O          -4.7807    1.2665    2.3065 O.2     1  UNL11      -0.2116
      2 C          -3.8700    0.5837    1.7701 C.2     1  UNL11       0.4383
      3 N          -4.1471   -0.3284    0.8274 N.am    1  UNL11      -0.0356
      4 N          -3.1865   -1.0145    0.2979 N.2     1  UNL11      -0.0073
      5 C          -1.8573   -0.9073    0.6080 C.2     1  UNL11       0.1192
      6 C          -0.8741   -1.8207   -0.0254 C.3     1  UNL11       0.0211
      7 C           0.1694   -1.1553   -0.8164 C.ar    1  UNL11      -0.0406
      8 C           0.0458   -0.8909   -2.1405 C.ar    1  UNL11      -0.0555
      9 C           1.0623   -0.2468   -2.8716 C.ar    1  UNL11      -0.0256
     10 C           2.2166    0.1324   -2.2528 C.ar    1  UNL11       0.1311
     11 F           3.2155    0.7574   -2.9462 F       1  UNL11      -0.2049
     12 C           2.3870   -0.1157   -0.9080 C.ar    1  UNL11       0.0177
     13 C           3.6222    0.2903   -0.2320 C.ar    1  UNL11      -0.0123
     14 C           3.6519    0.6425    1.0937 C.ar    1  UNL11      -0.0358
     15 C           4.8396    1.0256    1.7158 C.ar    1  UNL11       0.0281
     16 N           5.9755    1.0482    0.9941 N.ar    1  UNL11      -0.2632
     17 C           5.9876    0.7105   -0.3048 C.ar    1  UNL11       0.0281
     18 C           4.7997    0.3237   -0.9403 C.ar    1  UNL11      -0.0358
     19 C           1.3764   -0.7435   -0.2325 C.ar    1  UNL11      -0.0477
     20 C          -1.5272    0.0181    1.5689 C.ar    1  UNL11       0.0192
     21 C          -0.2120    0.2086    1.9206 C.ar    1  UNL11      -0.0518
     22 C           0.0844    1.1566    2.8699 C.ar    1  UNL11      -0.0611
     23 C          -0.9153    1.9017    3.4566 C.ar    1  UNL11      -0.0608
     24 C          -2.2350    1.7148    3.1050 C.ar    1  UNL11      -0.0441
     25 C          -2.5344    0.7674    2.1546 C.ar    1  UNL11       0.1004
     26 H          -5.1712   -0.4454    0.5573 H       1  UNL11       0.4829
     27 H          -1.3544   -2.6699   -0.5499 H       1  UNL11       0.0379
     28 H          -0.3355   -2.3186    0.8361 H       1  UNL11       0.0379
     29 H          -0.7988   -1.1482   -2.7213 H       1  UNL11       0.0621
     30 H           0.9256   -0.0481   -3.9466 H       1  UNL11       0.0646
     31 H           2.7641    0.6384    1.7025 H       1  UNL11       0.0639
     32 H           4.8983    1.3083    2.7519 H       1  UNL11       0.0830
     33 H           6.9308    0.7485   -0.8257 H       1  UNL11       0.0830
     34 H           4.8309    0.0583   -1.9863 H       1  UNL11       0.0639
     35 H           1.4877   -0.9495    0.8226 H       1  UNL11       0.0627
     36 H           0.5529   -0.3475    1.4566 H       1  UNL11       0.0624
     37 H           1.0956    1.3695    3.2052 H       1  UNL11       0.0618
     38 H          -0.6905    2.6498    4.2042 H       1  UNL11       0.0618
     39 H          -3.0524    2.2738    3.5333 H       1  UNL11       0.0627
@<TRIPOS>BOND
     1     1     2    2
     2     2     3   am
     3     3     4    1
     4     3    26    1
     5     4     5    2
     6     5     6    1
     7     5    20    1
     8     6     7    1
     9     6    27    1
    10     6    28    1
    11     7     8   ar
    12     8     9   ar
    13     8    29    1
    14     9    10   ar
    15     9    30    1
    16    10    11    1
    17    10    12   ar
    18    12    13    1
    19    12    19   ar
    20    13    14   ar
    21    14    15   ar
    22    14    31    1
    23    15    16   ar
    24    15    32    1
    25    16    17   ar
    26    17    18   ar
    27    17    33    1
    28    18    13   ar
    29    18    34    1
    30    19     7   ar
    31    19    35    1
    32    20    21   ar
    33    21    22   ar
    34    21    36    1
    35    22    23   ar
    36    22    37    1
    37    23    24   ar
    38    23    38    1
    39    24    25   ar
    40    24    39    1
    41    25     2    1
    42    25    20   ar
@<TRIPOS>MOLECULE
*****
 39 42 0 0 0
SMALL
GASTEIGER

@<TRIPOS>ATOM
      1 O          -1.1422    0.0163    5.1499 O.2     1  UNL11      -0.2116
      2 C          -1.0701   -0.4294    3.9754 C.2     1  UNL11       0.4383
      3 N          -0.5889    0.3212    2.9742 N.am    1  UNL11      -0.0356
      4 N          -0.5305   -0.1678    1.7778 N.2     1  UNL11      -0.0073
      5 C          -0.9241   -1.4247    1.4039 C.2     1  UNL11       0.1192
      6 C          -0.8741   -1.8207   -0.0254 C.3     1  UNL11       0.0211
      7 C           0.1694   -1.1553   -0.8164 C.ar    1  UNL11      -0.0406
      8 C           0.0458   -0.8909   -2.1405 C.ar    1  UNL11      -0.0555
      9 C           1.0623   -0.2468   -2.8716 C.ar    1  UNL11      -0.0256
     10 C           2.2166    0.1324   -2.2528 C.ar    1  UNL11       0.1311
     11 F           3.2155    0.7574   -2.9462 F       1  UNL11      -0.2049
     12 C           2.3870   -0.1157   -0.9080 C.ar    1  UNL11       0.0177
     13 C           3.6222    0.2903   -0.2320 C.ar    1  UNL11      -0.0123
     14 C           4.3582    1.3751   -0.6368 C.ar    1  UNL11      -0.0358
     15 C           5.5309    1.7426    0.0221 C.ar    1  UNL11       0.0281
     16 N           5.9426    1.0128    1.0755 N.ar    1  UNL11      -0.2632
     17 C           5.2503   -0.0549    1.5020 C.ar    1  UNL11       0.0281
     18 C           4.0702   -0.4334    0.8474 C.ar    1  UNL11      -0.0358
     19 C           1.3764   -0.7435   -0.2325 C.ar    1  UNL11      -0.0477
     20 C          -1.4224   -2.2301    2.3998 C.ar    1  UNL11       0.0192
     21 C          -1.8152   -3.5163    2.1152 C.ar    1  UNL11      -0.0518
     22 C          -2.2892   -4.3009    3.1387 C.ar    1  UNL11      -0.0611
     23 C          -2.3683   -3.8096    4.4237 C.ar    1  UNL11      -0.0608
     24 C          -1.9734   -2.5210    4.7130 C.ar    1  UNL11      -0.0441
     25 C          -1.4979   -1.7339    3.6908 C.ar    1  UNL11       0.1004
     26 H          -0.2727    1.3082    3.2218 H       1  UNL11       0.4829
     27 H          -1.8710   -1.8098   -0.5080 H       1  UNL11       0.0379
     28 H          -0.6008   -2.9186   -0.0185 H       1  UNL11       0.0379
     29 H          -0.7988   -1.1482   -2.7213 H       1  UNL11       0.0621
     30 H           0.9256   -0.0481   -3.9466 H       1  UNL11       0.0646
     31 H           4.0619    1.9815   -1.4755 H       1  UNL11       0.0639
     32 H           6.1317    2.5859   -0.2691 H       1  UNL11       0.0830
     33 H           5.6336   -0.5961    2.3522 H       1  UNL11       0.0830
     34 H           3.5298   -1.2967    1.2050 H       1  UNL11       0.0639
     35 H           1.4877   -0.9495    0.8226 H       1  UNL11       0.0627
     36 H          -1.7352   -3.8972    1.1364 H       1  UNL11       0.0624
     37 H          -2.6205   -5.3263    3.0002 H       1  UNL11       0.0618
     38 H          -2.7399   -4.4205    5.2347 H       1  UNL11       0.0618
     39 H          -2.0138   -2.0915    5.7019 H       1  UNL11       0.0627
@<TRIPOS>BOND
     1     1     2    2
     2     2     3   am
     3     3     4    1
     4     3    26    1
     5     4     5    2
     6     5     6    1
     7     5    20    1
     8     6     7    1
     9     6    27    1
    10     6    28    1
    11     7     8   ar
    12     8     9   ar
    13     8    29    1
    14     9    10   ar
    15     9    30    1
    16    10    11    1
    17    10    12   ar
    18    12    13    1
    19    12    19   ar
    20    13    14   ar
    21    14    15   ar
    22    14    31    1
    23    15    16   ar
    24    15    32    1
    25    16    17   ar
    26    17    18   ar
    27    17    33    1
    28    18    13   ar
    29    18    34    1
    30    19     7   ar
    31    19    35    1
    32    20    21   ar
    33    21    22   ar
    34    21    36    1
    35    22    23   ar
    36    22    37    1
    37    23    24   ar
    38    23    38    1
    39    24    25   ar
    40    24    39    1
    41    25     2    1
    42    25    20   ar
@<TRIPOS>MOLECULE
*****
 39 42 0 0 0
SMALL
GASTEIGER

@<TRIPOS>ATOM
      1 O          -0.0210   -2.6830    5.3373 O.2     1  UNL11      -0.2116
      2 C          -0.1931   -2.4680    4.1096 C.2     1  UNL11       0.4383
      3 N          -1.4126   -2.2219    3.6100 N.am    1  UNL11      -0.0356
      4 N          -1.5540   -2.0068    2.3420 N.2     1  UNL11      -0.0073
      5 C          -0.5500   -2.0026    1.4113 C.2     1  UNL11       0.1192
      6 C          -0.8741   -1.8207   -0.0254 C.3     1  UNL11       0.0211
      7 C           0.1694   -1.1553   -0.8164 C.ar    1  UNL11      -0.0406
      8 C           0.0458   -0.8909   -2.1405 C.ar    1  UNL11      -0.0555
      9 C           1.0623   -0.2468   -2.8716 C.ar    1  UNL11      -0.0256
     10 C           2.2166    0.1324   -2.2528 C.ar    1  UNL11       0.1311
     11 F           3.2155    0.7574   -2.9462 F       1  UNL11      -0.2049
     12 C           2.3870   -0.1157   -0.9080 C.ar    1  UNL11       0.0177
     13 C           3.6222    0.2903   -0.2320 C.ar    1  UNL11      -0.0123
     14 C           4.8275    0.3585   -0.8839 C.ar    1  UNL11      -0.0358
     15 C           5.9902    0.7476   -0.2196 C.ar    1  UNL11       0.0281
     16 N           5.9203    1.0606    1.0876 N.ar    1  UNL11      -0.2632
     17 C           4.7602    1.0065    1.7602 C.ar    1  UNL11       0.0281
     18 C           3.5853    0.6169    1.1027 C.ar    1  UNL11      -0.0358
     19 C           1.3764   -0.7435   -0.2325 C.ar    1  UNL11      -0.0477
     20 C           0.7183   -2.2485    1.8801 C.ar    1  UNL11       0.0192
     21 C           1.7877   -2.2359    1.0165 C.ar    1  UNL11      -0.0518
     22 C           3.0444   -2.4652    1.5224 C.ar    1  UNL11      -0.0611
     23 C           3.2295   -2.7017    2.8672 C.ar    1  UNL11      -0.0608
     24 C           2.1597   -2.7131    3.7364 C.ar    1  UNL11      -0.0441
     25 C           0.9010   -2.4832    3.2330 C.ar    1  UNL11       0.1004
     26 H          -2.2238   -2.2179    4.3009 H       1  UNL11       0.4829
     27 H          -1.8870   -1.4024   -0.1864 H       1  UNL11       0.0379
     28 H          -0.9561   -2.8683   -0.4449 H       1  UNL11       0.0379
     29 H          -0.7988   -1.1482   -2.7213 H       1  UNL11       0.0621
     30 H           0.9256   -0.0481   -3.9466 H       1  UNL11       0.0646
     31 H           4.9232    0.1143   -1.9279 H       1  UNL11       0.0639
     32 H           6.9507    0.8110   -0.6996 H       1  UNL11       0.0830
     33 H           4.7719    1.2709    2.8055 H       1  UNL11       0.0830
     34 H           2.6632    0.5777    1.6627 H       1  UNL11       0.0639
     35 H           1.4877   -0.9495    0.8226 H       1  UNL11       0.0627
     36 H           1.6472   -2.0349   -0.0080 H       1  UNL11       0.0624
     37 H           3.9418   -2.4734    0.9099 H       1  UNL11       0.0618
     38 H           4.2151   -2.8827    3.2732 H       1  UNL11       0.0618
     39 H           2.2530   -2.8911    4.7964 H       1  UNL11       0.0627
@<TRIPOS>BOND
     1     1     2    2
     2     2     3   am
     3     3     4    1
     4     3    26    1
     5     4     5    2
     6     5     6    1
     7     5    20    1
     8     6     7    1
     9     6    27    1
    10     6    28    1
    11     7     8   ar
    12     8     9   ar
    13     8    29    1
    14     9    10   ar
    15     9    30    1
    16    10    11    1
    17    10    12   ar
    18    12    13    1
    19    12    19   ar
    20    13    14   ar
    21    14    15   ar
    22    14    31    1
    23    15    16   ar
    24    15    32    1
    25    16    17   ar
    26    17    18   ar
    27    17    33    1
    28    18    13   ar
    29    18    34    1
    30    19     7   ar
    31    19    35    1
    32    20    21   ar
    33    21    22   ar
    34    21    36    1
    35    22    23   ar
    36    22    37    1
    37    23    24   ar
    38    23    38    1
    39    24    25   ar
    40    24    39    1
    41    25     2    1
    42    25    20   ar
@<TRIPOS>MOLECULE
*****
 39 42 0 0 0
SMALL
GASTEIGER

@<TRIPOS>ATOM
      1 O          -1.8863   -6.8612   -1.9744 O.2     1  UNL11      -0.2116
      2 C          -1.6787   -5.7095   -1.5121 C.2     1  UNL11       0.4383
      3 N          -1.3084   -4.6962   -2.3079 N.am    1  UNL11      -0.0356
      4 N          -1.1014   -3.5247   -1.7992 N.2     1  UNL11      -0.0073
      5 C          -1.2243   -3.1901   -0.4773 C.2     1  UNL11       0.1192
      6 C          -0.8741   -1.8207   -0.0254 C.3     1  UNL11       0.0211
      7 C           0.1694   -1.1553   -0.8164 C.ar    1  UNL11      -0.0406
      8 C           0.0458   -0.8909   -2.1405 C.ar    1  UNL11      -0.0555
      9 C           1.0623   -0.2468   -2.8716 C.ar    1  UNL11      -0.0256
     10 C           2.2166    0.1324   -2.2528 C.ar    1  UNL11       0.1311
     11 F           3.2155    0.7574   -2.9462 F       1  UNL11      -0.2049
     12 C           2.3870   -0.1157   -0.9080 C.ar    1  UNL11       0.0177
     13 C           3.6222    0.2903   -0.2320 C.ar    1  UNL11      -0.0123
     14 C           3.6519    0.6425    1.0937 C.ar    1  UNL11      -0.0358
     15 C           4.8396    1.0256    1.7158 C.ar    1  UNL11       0.0281
     16 N           5.9755    1.0482    0.9941 N.ar    1  UNL11      -0.2632
     17 C           5.9876    0.7105   -0.3048 C.ar    1  UNL11       0.0281
     18 C           4.7997    0.3237   -0.9403 C.ar    1  UNL11      -0.0358
     19 C           1.3764   -0.7435   -0.2325 C.ar    1  UNL11      -0.0477
     20 C          -1.6046   -4.1989    0.3752 C.ar    1  UNL11       0.0192
     21 C          -1.7775   -3.9420    1.7145 C.ar    1  UNL11      -0.0518
     22 C          -2.1783   -4.9688    2.5347 C.ar    1  UNL11      -0.0611
     23 C          -2.4034   -6.2294    2.0258 C.ar    1  UNL11      -0.0608
     24 C          -2.2329   -6.4901    0.6830 C.ar    1  UNL11      -0.0441
     25 C          -1.8326   -5.4642   -0.1403 C.ar    1  UNL11       0.1004
     26 H          -1.1990   -4.9141   -3.3452 H       1  UNL11       0.4829
     27 H          -0.7082   -1.7597    1.0681 H       1  UNL11       0.0379
     28 H          -1.8134   -1.2091   -0.1801 H       1  UNL11       0.0379
     29 H          -0.7988   -1.1482   -2.7213 H       1  UNL11       0.0621
     30 H           0.9256   -0.0481   -3.9466 H       1  UNL11       0.0646
     31 H           2.7641    0.6384    1.7025 H       1  UNL11       0.0639
     32 H           4.8983    1.3083    2.7519 H       1  UNL11       0.0830
     33 H           6.9308    0.7485   -0.8257 H       1  UNL11       0.0830
     34 H           4.8309    0.0583   -1.9863 H       1  UNL11       0.0639
     35 H           1.4877   -0.9495    0.8226 H       1  UNL11       0.0627
     36 H          -1.6247   -2.9732    2.0986 H       1  UNL11       0.0624
     37 H          -2.3373   -4.8517    3.6031 H       1  UNL11       0.0618
     38 H          -2.7192   -7.0427    2.6644 H       1  UNL11       0.0618
     39 H          -2.3983   -7.4583    0.2366 H       1  UNL11       0.0627
@<TRIPOS>BOND
     1     1     2    2
     2     2     3   am
     3     3     4    1
     4     3    26    1
     5     4     5    2
     6     5     6    1
     7     5    20    1
     8     6     7    1
     9     6    27    1
    10     6    28    1
    11     7     8   ar
    12     8     9   ar
    13     8    29    1
    14     9    10   ar
    15     9    30    1
    16    10    11    1
    17    10    12   ar
    18    12    13    1
    19    12    19   ar
    20    13    14   ar
    21    14    15   ar
    22    14    31    1
    23    15    16   ar
    24    15    32    1
    25    16    17   ar
    26    17    18   ar
    27    17    33    1
    28    18    13   ar
    29    18    34    1
    30    19     7   ar
    31    19    35    1
    32    20    21   ar
    33    21    22   ar
    34    21    36    1
    35    22    23   ar
    36    22    37    1
    37    23    24   ar
    38    23    38    1
    39    24    25   ar
    40    24    39    1
    41    25     2    1
    42    25    20   ar
@<TRIPOS>MOLECULE
*****
 39 42 0 0 0
SMALL
GASTEIGER

@<TRIPOS>ATOM
      1 O           1.1894   -5.0421    3.9236 O.2     1  UNL11      -0.2116
      2 C           0.6985   -4.2937    3.0392 C.2     1  UNL11       0.4383
      3 N           0.4182   -4.7564    1.8126 N.am    1  UNL11      -0.0356
      4 N          -0.0844   -3.9589    0.9264 N.2     1  UNL11      -0.0073
      5 C          -0.3749   -2.6338    1.1112 C.2     1  UNL11       0.1192
      6 C          -0.8741   -1.8207   -0.0254 C.3     1  UNL11       0.0211
      7 C           0.1694   -1.1553   -0.8164 C.ar    1  UNL11      -0.0406
      8 C           0.0458   -0.8909   -2.1405 C.ar    1  UNL11      -0.0555
      9 C           1.0623   -0.2468   -2.8716 C.ar    1  UNL11      -0.0256
     10 C           2.2166    0.1324   -2.2528 C.ar    1  UNL11       0.1311
     11 F           3.2155    0.7574   -2.9462 F       1  UNL11      -0.2049
     12 C           2.3870   -0.1157   -0.9080 C.ar    1  UNL11       0.0177
     13 C           3.6222    0.2903   -0.2320 C.ar    1  UNL11      -0.0123
     14 C           3.6519    0.6425    1.0937 C.ar    1  UNL11      -0.0358
     15 C           4.8396    1.0256    1.7158 C.ar    1  UNL11       0.0281
     16 N           5.9755    1.0482    0.9941 N.ar    1  UNL11      -0.2632
     17 C           5.9876    0.7105   -0.3048 C.ar    1  UNL11       0.0281
     18 C           4.7997    0.3237   -0.9403 C.ar    1  UNL11      -0.0358
     19 C           1.3764   -0.7435   -0.2325 C.ar    1  UNL11      -0.0477
     20 C          -0.1053   -2.1174    2.3559 C.ar    1  UNL11       0.0192
     21 C          -0.3921   -0.8021    2.6342 C.ar    1  UNL11      -0.0518
     22 C          -0.1291   -0.3241    3.8952 C.ar    1  UNL11      -0.0611
     23 C           0.4099   -1.1458    4.8611 C.ar    1  UNL11      -0.0608
     24 C           0.6969   -2.4657    4.5862 C.ar    1  UNL11      -0.0441
     25 C           0.4339   -2.9469    3.3254 C.ar    1  UNL11       0.1004
     26 H           0.6312   -5.7836    1.6255 H       1  UNL11       0.4829
     27 H          -1.7084   -1.1507    0.2610 H       1  UNL11       0.0379
     28 H          -1.3647   -2.5616   -0.7259 H       1  UNL11       0.0379
     29 H          -0.7988   -1.1482   -2.7213 H       1  UNL11       0.0621
     30 H           0.9256   -0.0481   -3.9466 H       1  UNL11       0.0646
     31 H           2.7641    0.6384    1.7025 H       1  UNL11       0.0639
     32 H           4.8983    1.3083    2.7519 H       1  UNL11       0.0830
     33 H           6.9308    0.7485   -0.8257 H       1  UNL11       0.0830
     34 H           4.8309    0.0583   -1.9863 H       1  UNL11       0.0639
     35 H           1.4877   -0.9495    0.8226 H       1  UNL11       0.0627
     36 H          -0.8229   -0.1806    1.9009 H       1  UNL11       0.0624
     37 H          -0.3247    0.7009    4.1976 H       1  UNL11       0.0618
     38 H           0.6197   -0.7775    5.8558 H       1  UNL11       0.0618
     39 H           1.1169   -3.1487    5.3082 H       1  UNL11       0.0627
@<TRIPOS>BOND
     1     1     2    2
     2     2     3   am
     3     3     4    1
     4     3    26    1
     5     4     5    2
     6     5     6    1
     7     5    20    1
     8     6     7    1
     9     6    27    1
    10     6    28    1
    11     7     8   ar
    12     8     9   ar
    13     8    29    1
    14     9    10   ar
    15     9    30    1
    16    10    11    1
    17    10    12   ar
    18    12    13    1
    19    12    19   ar
    20    13    14   ar
    21    14    15   ar
    22    14    31    1
    23    15    16   ar
    24    15    32    1
    25    16    17   ar
    26    17    18   ar
    27    17    33    1
    28    18    13   ar
    29    18    34    1
    30    19     7   ar
    31    19    35    1
    32    20    21   ar
    33    21    22   ar
    34    21    36    1
    35    22    23   ar
    36    22    37    1
    37    23    24   ar
    38    23    38    1
    39    24    25   ar
    40    24    39    1
    41    25     2    1
    42    25    20   ar
@<TRIPOS>MOLECULE
*****
 39 42 0 0 0
SMALL
GASTEIGER

@<TRIPOS>ATOM
      1 O          -0.1559   -7.2718   -0.0370 O.2     1  UNL11      -0.2116
      2 C          -0.3469   -6.0282   -0.0231 C.2     1  UNL11       0.4383
      3 N          -0.0095   -5.2602   -1.0690 N.am    1  UNL11      -0.0356
      4 N          -0.2182   -3.9842   -1.0206 N.2     1  UNL11      -0.0073
      5 C          -0.7706   -3.3001    0.0288 C.2     1  UNL11       0.1192
      6 C          -0.8741   -1.8207   -0.0254 C.3     1  UNL11       0.0211
      7 C           0.1694   -1.1553   -0.8164 C.ar    1  UNL11      -0.0406
      8 C           0.0458   -0.8909   -2.1405 C.ar    1  UNL11      -0.0555
      9 C           1.0623   -0.2468   -2.8716 C.ar    1  UNL11      -0.0256
     10 C           2.2166    0.1324   -2.2528 C.ar    1  UNL11       0.1311
     11 F           3.2155    0.7574   -2.9462 F       1  UNL11      -0.2049
     12 C           2.3870   -0.1157   -0.9080 C.ar    1  UNL11       0.0177
     13 C           3.6222    0.2903   -0.2320 C.ar    1  UNL11      -0.0123
     14 C           4.3582    1.3751   -0.6368 C.ar    1  UNL11      -0.0358
     15 C           5.5309    1.7426    0.0221 C.ar    1  UNL11       0.0281
     16 N           5.9426    1.0128    1.0755 N.ar    1  UNL11      -0.2632
     17 C           5.2503   -0.0549    1.5020 C.ar    1  UNL11       0.0281
     18 C           4.0702   -0.4334    0.8474 C.ar    1  UNL11      -0.0358
     19 C           1.3764   -0.7435   -0.2325 C.ar    1  UNL11      -0.0477
     20 C          -1.1337   -4.0488    1.1225 C.ar    1  UNL11       0.0192
     21 C          -1.7202   -3.4442    2.2088 C.ar    1  UNL11      -0.0518
     22 C          -2.0897   -4.2257    3.2767 C.ar    1  UNL11      -0.0611
     23 C          -1.8779   -5.5872    3.2592 C.ar    1  UNL11      -0.0608
     24 C          -1.2919   -6.1972    2.1708 C.ar    1  UNL11      -0.0441
     25 C          -0.9219   -5.4176    1.1003 C.ar    1  UNL11       0.1004
     26 H           0.4260   -5.7532   -1.9073 H       1  UNL11       0.4829
     27 H          -1.0325   -1.3656    0.9720 H       1  UNL11       0.0379
     28 H          -1.8472   -1.6120   -0.5637 H       1  UNL11       0.0379
     29 H          -0.7988   -1.1482   -2.7213 H       1  UNL11       0.0621
     30 H           0.9256   -0.0481   -3.9466 H       1  UNL11       0.0646
     31 H           4.0619    1.9815   -1.4755 H       1  UNL11       0.0639
     32 H           6.1317    2.5859   -0.2691 H       1  UNL11       0.0830
     33 H           5.6336   -0.5961    2.3522 H       1  UNL11       0.0830
     34 H           3.5298   -1.2967    1.2050 H       1  UNL11       0.0639
     35 H           1.4877   -0.9495    0.8226 H       1  UNL11       0.0627
     36 H          -1.8999   -2.4062    2.2124 H       1  UNL11       0.0624
     37 H          -2.5576   -3.8285    4.1732 H       1  UNL11       0.0618
     38 H          -2.1660   -6.2093    4.0953 H       1  UNL11       0.0618
     39 H          -1.1071   -7.2583    2.1083 H       1  UNL11       0.0627
@<TRIPOS>BOND
     1     1     2    2
     2     2     3   am
     3     3     4    1
     4     3    26    1
     5     4     5    2
     6     5     6    1
     7     5    20    1
     8     6     7    1
     9     6    27    1
    10     6    28    1
    11     7     8   ar
    12     8     9   ar
    13     8    29    1
    14     9    10   ar
    15     9    30    1
    16    10    11    1
    17    10    12   ar
    18    12    13    1
    19    12    19   ar
    20    13    14   ar
    21    14    15   ar
    22    14    31    1
    23    15    16   ar
    24    15    32    1
    25    16    17   ar
    26    17    18   ar
    27    17    33    1
    28    18    13   ar
    29    18    34    1
    30    19     7   ar
    31    19    35    1
    32    20    21   ar
    33    21    22   ar
    34    21    36    1
    35    22    23   ar
    36    22    37    1
    37    23    24   ar
    38    23    38    1
    39    24    25   ar
    40    24    39    1
    41    25     2    1
    42    25    20   ar
@<TRIPOS>MOLECULE
*****
 39 42 0 0 0
SMALL
GASTEIGER

@<TRIPOS>ATOM
      1 O          -5.8889   -0.6138   -1.9294 O.2     1  UNL11      -0.2116
      2 C          -4.7527   -0.9124   -1.4788 C.2     1  UNL11       0.4383
      3 N          -3.9173    0.0292   -1.0172 N.am    1  UNL11      -0.0356
      4 N          -2.7552   -0.3126   -0.5625 N.2     1  UNL11      -0.0073
      5 C          -2.2615   -1.5879   -0.4977 C.2     1  UNL11       0.1192
      6 C          -0.8741   -1.8207   -0.0254 C.3     1  UNL11       0.0211
      7 C           0.1694   -1.1553   -0.8164 C.ar    1  UNL11      -0.0406
      8 C           0.0458   -0.8909   -2.1405 C.ar    1  UNL11      -0.0555
      9 C           1.0623   -0.2468   -2.8716 C.ar    1  UNL11      -0.0256
     10 C           2.2166    0.1324   -2.2528 C.ar    1  UNL11       0.1311
     11 F           3.2155    0.7574   -2.9462 F       1  UNL11      -0.2049
     12 C           2.3870   -0.1157   -0.9080 C.ar    1  UNL11       0.0177
     13 C           3.6222    0.2903   -0.2320 C.ar    1  UNL11      -0.0123
     14 C           4.3582    1.3751   -0.6368 C.ar    1  UNL11      -0.0358
     15 C           5.5309    1.7426    0.0221 C.ar    1  UNL11       0.0281
     16 N           5.9426    1.0128    1.0755 N.ar    1  UNL11      -0.2632
     17 C           5.2503   -0.0549    1.5020 C.ar    1  UNL11       0.0281
     18 C           4.0702   -0.4334    0.8474 C.ar    1  UNL11      -0.0358
     19 C           1.3764   -0.7435   -0.2325 C.ar    1  UNL11      -0.0477
     20 C          -3.0860   -2.5861   -0.9589 C.ar    1  UNL11       0.0192
     21 C          -2.6783   -3.8978   -0.9051 C.ar    1  UNL11      -0.0518
     22 C          -3.5360   -4.8721   -1.3554 C.ar    1  UNL11      -0.0611
     23 C          -4.7792   -4.5419   -1.8496 C.ar    1  UNL11      -0.0608
     24 C          -5.1921   -3.2279   -1.9032 C.ar    1  UNL11      -0.0441
     25 C          -4.3361   -2.2508   -1.4525 C.ar    1  UNL11       0.1004
     26 H          -4.2621    1.0369   -1.0512 H       1  UNL11       0.4829
     27 H          -0.6639   -2.8894    0.1763 H       1  UNL11       0.0379
     28 H          -0.8285   -1.3486    1.0019 H       1  UNL11       0.0379
     29 H          -0.7988   -1.1482   -2.7213 H       1  UNL11       0.0621
     30 H           0.9256   -0.0481   -3.9466 H       1  UNL11       0.0646
     31 H           4.0619    1.9815   -1.4755 H       1  UNL11       0.0639
     32 H           6.1317    2.5859   -0.2691 H       1  UNL11       0.0830
     33 H           5.6336   -0.5961    2.3522 H       1  UNL11       0.0830
     34 H           3.5298   -1.2967    1.2050 H       1  UNL11       0.0639
     35 H           1.4877   -0.9495    0.8226 H       1  UNL11       0.0627
     36 H          -1.7358   -4.1504   -0.5083 H       1  UNL11       0.0624
     37 H          -3.2925   -5.9309   -1.3489 H       1  UNL11       0.0618
     38 H          -5.4601   -5.3026   -2.2057 H       1  UNL11       0.0618
     39 H          -6.1552   -2.9190   -2.2789 H       1  UNL11       0.0627
@<TRIPOS>BOND
     1     1     2    2
     2     2     3   am
     3     3     4    1
     4     3    26    1
     5     4     5    2
     6     5     6    1
     7     5    20    1
     8     6     7    1
     9     6    27    1
    10     6    28    1
    11     7     8   ar
    12     8     9   ar
    13     8    29    1
    14     9    10   ar
    15     9    30    1
    16    10    11    1
    17    10    12   ar
    18    12    13    1
    19    12    19   ar
    20    13    14   ar
    21    14    15   ar
    22    14    31    1
    23    15    16   ar
    24    15    32    1
    25    16    17   ar
    26    17    18   ar
    27    17    33    1
    28    18    13   ar
    29    18    34    1
    30    19     7   ar
    31    19    35    1
    32    20    21   ar
    33    21    22   ar
    34    21    36    1
    35    22    23   ar
    36    22    37    1
    37    23    24   ar
    38    23    38    1
    39    24    25   ar
    40    24    39    1
    41    25     2    1
    42    25    20   ar
@<TRIPOS>MOLECULE
*****
 39 42 0 0 0
SMALL
GASTEIGER

@<TRIPOS>ATOM
      1 O          -5.8506    0.4917    0.3174 O.2     1  UNL11      -0.2116
      2 C          -4.7050   -0.0190    0.2175 C.2     1  UNL11       0.4383
      3 N          -4.5318   -1.3484    0.2299 N.am    1  UNL11      -0.0356
      4 N          -3.3394   -1.8401    0.1269 N.2     1  UNL11      -0.0073
      5 C          -2.1819   -1.1199    0.0009 C.2     1  UNL11       0.1192
      6 C          -0.8741   -1.8207   -0.0254 C.3     1  UNL11       0.0211
      7 C           0.1694   -1.1553   -0.8164 C.ar    1  UNL11      -0.0406
      8 C           0.0458   -0.8909   -2.1405 C.ar    1  UNL11      -0.0555
      9 C           1.0623   -0.2468   -2.8716 C.ar    1  UNL11      -0.0256
     10 C           2.2166    0.1324   -2.2528 C.ar    1  UNL11       0.1311
     11 F           3.2155    0.7574   -2.9462 F       1  UNL11      -0.2049
     12 C           2.3870   -0.1157   -0.9080 C.ar    1  UNL11       0.0177
     13 C           3.6222    0.2903   -0.2320 C.ar    1  UNL11      -0.0123
     14 C           3.8420    0.0518    1.1011 C.ar    1  UNL11      -0.0358
     15 C           5.0257    0.4475    1.7231 C.ar    1  UNL11       0.0281
     16 N           5.9664    1.0761    0.9940 N.ar    1  UNL11      -0.2632
     17 C           5.7890    1.3273   -0.3124 C.ar    1  UNL11       0.0281
     18 C           4.6033    0.9340   -0.9479 C.ar    1  UNL11      -0.0358
     19 C           1.3764   -0.7435   -0.2325 C.ar    1  UNL11      -0.0477
     20 C          -2.3128    0.2480   -0.0185 C.ar    1  UNL11       0.0192
     21 C          -1.2032    1.0453   -0.1690 C.ar    1  UNL11      -0.0518
     22 C          -1.3727    2.4084   -0.2051 C.ar    1  UNL11      -0.0611
     23 C          -2.6284    2.9647   -0.0939 C.ar    1  UNL11      -0.0608
     24 C          -3.7435    2.1682    0.0551 C.ar    1  UNL11      -0.0441
     25 C          -3.5770    0.8038    0.0907 C.ar    1  UNL11       0.1004
     26 H          -5.4079   -1.9469    0.3284 H       1  UNL11       0.4829
     27 H          -0.9722   -2.9027   -0.2415 H       1  UNL11       0.0379
     28 H          -0.5070   -1.8018    1.0447 H       1  UNL11       0.0379
     29 H          -0.7988   -1.1482   -2.7213 H       1  UNL11       0.0621
     30 H           0.9256   -0.0481   -3.9466 H       1  UNL11       0.0646
     31 H           3.1128   -0.4464    1.7167 H       1  UNL11       0.0639
     32 H           5.2299    0.2770    2.7652 H       1  UNL11       0.0830
     33 H           6.5818    1.8334   -0.8395 H       1  UNL11       0.0830
     34 H           4.4797    1.1479   -1.9988 H       1  UNL11       0.0639
     35 H           1.4877   -0.9495    0.8226 H       1  UNL11       0.0627
     36 H          -0.2462    0.6179   -0.2742 H       1  UNL11       0.0624
     37 H          -0.5503    3.1090   -0.3202 H       1  UNL11       0.0618
     38 H          -2.7703    4.0362   -0.1216 H       1  UNL11       0.0618
     39 H          -4.7467    2.5552    0.1439 H       1  UNL11       0.0627
@<TRIPOS>BOND
     1     1     2    2
     2     2     3   am
     3     3     4    1
     4     3    26    1
     5     4     5    2
     6     5     6    1
     7     5    20    1
     8     6     7    1
     9     6    27    1
    10     6    28    1
    11     7     8   ar
    12     8     9   ar
    13     8    29    1
    14     9    10   ar
    15     9    30    1
    16    10    11    1
    17    10    12   ar
    18    12    13    1
    19    12    19   ar
    20    13    14   ar
    21    14    15   ar
    22    14    31    1
    23    15    16   ar
    24    15    32    1
    25    16    17   ar
    26    17    18   ar
    27    17    33    1
    28    18    13   ar
    29    18    34    1
    30    19     7   ar
    31    19    35    1
    32    20    21   ar
    33    21    22   ar
    34    21    36    1
    35    22    23   ar
    36    22    37    1
    37    23    24   ar
    38    23    38    1
    39    24    25   ar
    40    24    39    1
    41    25     2    1
    42    25    20   ar
@<TRIPOS>MOLECULE
*****
 39 42 0 0 0
SMALL
GASTEIGER

@<TRIPOS>ATOM
      1 O          -5.5852    0.9845    0.3826 O.2     1  UNL11      -0.2116
      2 C          -4.5197    0.3248    0.2699 C.2     1  UNL11       0.4383
      3 N          -3.7995   -0.0237    1.3457 N.am    1  UNL11      -0.0356
      4 N          -2.7075   -0.7008    1.1936 N.2     1  UNL11      -0.0073
      5 C          -2.1819   -1.1199    0.0009 C.2     1  UNL11       0.1192
      6 C          -0.8741   -1.8207   -0.0254 C.3     1  UNL11       0.0211
      7 C           0.1694   -1.1553   -0.8164 C.ar    1  UNL11      -0.0406
      8 C           0.0458   -0.8909   -2.1405 C.ar    1  UNL11      -0.0555
      9 C           1.0623   -0.2468   -2.8716 C.ar    1  UNL11      -0.0256
     10 C           2.2166    0.1324   -2.2528 C.ar    1  UNL11       0.1311
     11 F           3.2155    0.7574   -2.9462 F       1  UNL11      -0.2049
     12 C           2.3870   -0.1157   -0.9080 C.ar    1  UNL11       0.0177
     13 C           3.6222    0.2903   -0.2320 C.ar    1  UNL11      -0.0123
     14 C           4.3582    1.3751   -0.6368 C.ar    1  UNL11      -0.0358
     15 C           5.5309    1.7426    0.0221 C.ar    1  UNL11       0.0281
     16 N           5.9426    1.0128    1.0755 N.ar    1  UNL11      -0.2632
     17 C           5.2503   -0.0549    1.5020 C.ar    1  UNL11       0.0281
     18 C           4.0702   -0.4334    0.8474 C.ar    1  UNL11      -0.0358
     19 C           1.3764   -0.7435   -0.2325 C.ar    1  UNL11      -0.0477
     20 C          -2.8894   -0.7862   -1.1291 C.ar    1  UNL11       0.0192
     21 C          -2.4458   -1.1910   -2.3656 C.ar    1  UNL11      -0.0518
     22 C          -3.1886   -0.8578   -3.4724 C.ar    1  UNL11      -0.0611
     23 C          -4.3542   -0.1339   -3.3459 C.ar    1  UNL11      -0.0608
     24 C          -4.8031    0.2720   -2.1074 C.ar    1  UNL11      -0.0441
     25 C          -4.0622   -0.0608   -0.9980 C.ar    1  UNL11       0.1004
     26 H          -4.1725    0.2846    2.2950 H       1  UNL11       0.4829
     27 H          -0.9722   -2.9027   -0.2415 H       1  UNL11       0.0379
     28 H          -0.5070   -1.8018    1.0447 H       1  UNL11       0.0379
     29 H          -0.7988   -1.1482   -2.7213 H       1  UNL11       0.0621
     30 H           0.9256   -0.0481   -3.9466 H       1  UNL11       0.0646
     31 H           4.0619    1.9815   -1.4755 H       1  UNL11       0.0639
     32 H           6.1317    2.5859   -0.2691 H       1  UNL11       0.0830
     33 H           5.6336   -0.5961    2.3522 H       1  UNL11       0.0830
     34 H           3.5298   -1.2967    1.2050 H       1  UNL11       0.0639
     35 H           1.4877   -0.9495    0.8226 H       1  UNL11       0.0627
     36 H          -1.5653   -1.7616   -2.4589 H       1  UNL11       0.0624
     37 H          -2.9094   -1.1370   -4.4845 H       1  UNL11       0.0618
     38 H          -4.9446    0.1322   -4.2117 H       1  UNL11       0.0618
     39 H          -5.7093    0.8378   -1.9562 H       1  UNL11       0.0627
@<TRIPOS>BOND
     1     1     2    2
     2     2     3   am
     3     3     4    1
     4     3    26    1
     5     4     5    2
     6     5     6    1
     7     5    20    1
     8     6     7    1
     9     6    27    1
    10     6    28    1
    11     7     8   ar
    12     8     9   ar
    13     8    29    1
    14     9    10   ar
    15     9    30    1
    16    10    11    1
    17    10    12   ar
    18    12    13    1
    19    12    19   ar
    20    13    14   ar
    21    14    15   ar
    22    14    31    1
    23    15    16   ar
    24    15    32    1
    25    16    17   ar
    26    17    18   ar
    27    17    33    1
    28    18    13   ar
    29    18    34    1
    30    19     7   ar
    31    19    35    1
    32    20    21   ar
    33    21    22   ar
    34    21    36    1
    35    22    23   ar
    36    22    37    1
    37    23    24   ar
    38    23    38    1
    39    24    25   ar
    40    24    39    1
    41    25     2    1
    42    25    20   ar
@<TRIPOS>MOLECULE
*****
 39 42 0 0 0
SMALL
GASTEIGER

@<TRIPOS>ATOM
      1 O          -3.0573    0.8173    4.2763 O.2     1  UNL11      -0.2116
      2 C          -2.5452    0.2385    3.2834 C.2     1  UNL11       0.4383
      3 N          -3.2562   -0.6134    2.5310 N.am    1  UNL11      -0.0356
      4 N          -2.6978   -1.1929    1.5178 N.2     1  UNL11      -0.0073
      5 C          -1.4015   -1.0247    1.1105 C.2     1  UNL11       0.1192
      6 C          -0.8741   -1.8207   -0.0254 C.3     1  UNL11       0.0211
      7 C           0.1694   -1.1553   -0.8164 C.ar    1  UNL11      -0.0406
      8 C           0.0458   -0.8909   -2.1405 C.ar    1  UNL11      -0.0555
      9 C           1.0623   -0.2468   -2.8716 C.ar    1  UNL11      -0.0256
     10 C           2.2166    0.1324   -2.2528 C.ar    1  UNL11       0.1311
     11 F           3.2155    0.7574   -2.9462 F       1  UNL11      -0.2049
     12 C           2.3870   -0.1157   -0.9080 C.ar    1  UNL11       0.0177
     13 C           3.6222    0.2903   -0.2320 C.ar    1  UNL11      -0.0123
     14 C           4.3582    1.3751   -0.6368 C.ar    1  UNL11      -0.0358
     15 C           5.5309    1.7426    0.0221 C.ar    1  UNL11       0.0281
     16 N           5.9426    1.0128    1.0755 N.ar    1  UNL11      -0.2632
     17 C           5.2503   -0.0549    1.5020 C.ar    1  UNL11       0.0281
     18 C           4.0702   -0.4334    0.8474 C.ar    1  UNL11      -0.0358
     19 C           1.3764   -0.7435   -0.2325 C.ar    1  UNL11      -0.0477
     20 C          -0.6359   -0.1575    1.8526 C.ar    1  UNL11       0.0192
     21 C           0.6686    0.0894    1.4961 C.ar    1  UNL11      -0.0518
     22 C           1.3990    0.9778    2.2478 C.ar    1  UNL11      -0.0611
     23 C           0.8358    1.6089    3.3356 C.ar    1  UNL11      -0.0608
     24 C          -0.4725    1.3653    3.6948 C.ar    1  UNL11      -0.0441
     25 C          -1.2061    0.4773    2.9438 C.ar    1  UNL11       0.1004
     26 H          -4.2705   -0.7748    2.8148 H       1  UNL11       0.4829
     27 H          -1.6765   -2.2728   -0.6408 H       1  UNL11       0.0379
     28 H          -0.3742   -2.7179    0.4493 H       1  UNL11       0.0379
     29 H          -0.7988   -1.1482   -2.7213 H       1  UNL11       0.0621
     30 H           0.9256   -0.0481   -3.9466 H       1  UNL11       0.0646
     31 H           4.0619    1.9815   -1.4755 H       1  UNL11       0.0639
     32 H           6.1317    2.5859   -0.2691 H       1  UNL11       0.0830
     33 H           5.6336   -0.5961    2.3522 H       1  UNL11       0.0830
     34 H           3.5298   -1.2967    1.2050 H       1  UNL11       0.0639
     35 H           1.4877   -0.9495    0.8226 H       1  UNL11       0.0627
     36 H           1.0915   -0.3785    0.6524 H       1  UNL11       0.0624
     37 H           2.4346    1.2286    2.0357 H       1  UNL11       0.0618
     38 H           1.4036    2.3095    3.9321 H       1  UNL11       0.0618
     39 H          -0.9588    1.8354    4.5353 H       1  UNL11       0.0627
@<TRIPOS>BOND
     1     1     2    2
     2     2     3   am
     3     3     4    1
     4     3    26    1
     5     4     5    2
     6     5     6    1
     7     5    20    1
     8     6     7    1
     9     6    27    1
    10     6    28    1
    11     7     8   ar
    12     8     9   ar
    13     8    29    1
    14     9    10   ar
    15     9    30    1
    16    10    11    1
    17    10    12   ar
    18    12    13    1
    19    12    19   ar
    20    13    14   ar
    21    14    15   ar
    22    14    31    1
    23    15    16   ar
    24    15    32    1
    25    16    17   ar
    26    17    18   ar
    27    17    33    1
    28    18    13   ar
    29    18    34    1
    30    19     7   ar
    31    19    35    1
    32    20    21   ar
    33    21    22   ar
    34    21    36    1
    35    22    23   ar
    36    22    37    1
    37    23    24   ar
    38    23    38    1
    39    24    25   ar
    40    24    39    1
    41    25     2    1
    42    25    20   ar
@<TRIPOS>MOLECULE
*****
 39 42 0 0 0
SMALL
GASTEIGER

@<TRIPOS>ATOM
      1 O          -3.0573    0.8173    4.2763 O.2     1  UNL11      -0.2116
      2 C          -2.5452    0.2385    3.2834 C.2     1  UNL11       0.4383
      3 N          -3.2562   -0.6134    2.5310 N.am    1  UNL11      -0.0356
      4 N          -2.6978   -1.1929    1.5178 N.2     1  UNL11      -0.0073
      5 C          -1.4015   -1.0247    1.1105 C.2     1  UNL11       0.1192
      6 C          -0.8741   -1.8207   -0.0254 C.3     1  UNL11       0.0211
      7 C           0.1694   -1.1553   -0.8164 C.ar    1  UNL11      -0.0406
      8 C           0.0458   -0.8909   -2.1405 C.ar    1  UNL11      -0.0555
      9 C           1.0623   -0.2468   -2.8716 C.ar    1  UNL11      -0.0256
     10 C           2.2166    0.1324   -2.2528 C.ar    1  UNL11       0.1311
     11 F           3.2155    0.7574   -2.9462 F       1  UNL11      -0.2049
     12 C           2.3870   -0.1157   -0.9080 C.ar    1  UNL11       0.0177
     13 C           3.6222    0.2903   -0.2320 C.ar    1  UNL11      -0.0123
     14 C           4.8275    0.3585   -0.8839 C.ar    1  UNL11      -0.0358
     15 C           5.9902    0.7476   -0.2196 C.ar    1  UNL11       0.0281
     16 N           5.9203    1.0606    1.0876 N.ar    1  UNL11      -0.2632
     17 C           4.7602    1.0065    1.7602 C.ar    1  UNL11       0.0281
     18 C           3.5853    0.6169    1.1027 C.ar    1  UNL11      -0.0358
     19 C           1.3764   -0.7435   -0.2325 C.ar    1  UNL11      -0.0477
     20 C          -0.6359   -0.1575    1.8526 C.ar    1  UNL11       0.0192
     21 C           0.6686    0.0894    1.4961 C.ar    1  UNL11      -0.0518
     22 C           1.3990    0.9778    2.2478 C.ar    1  UNL11      -0.0611
     23 C           0.8358    1.6089    3.3356 C.ar    1  UNL11      -0.0608
     24 C          -0.4725    1.3653    3.6948 C.ar    1  UNL11      -0.0441
     25 C          -1.2061    0.4773    2.9438 C.ar    1  UNL11       0.1004
     26 H          -4.2705   -0.7748    2.8148 H       1  UNL11       0.4829
     27 H          -1.6765   -2.2728   -0.6408 H       1  UNL11       0.0379
     28 H          -0.3742   -2.7179    0.4493 H       1  UNL11       0.0379
     29 H          -0.7988   -1.1482   -2.7213 H       1  UNL11       0.0621
     30 H           0.9256   -0.0481   -3.9466 H       1  UNL11       0.0646
     31 H           4.9232    0.1143   -1.9279 H       1  UNL11       0.0639
     32 H           6.9507    0.8110   -0.6996 H       1  UNL11       0.0830
     33 H           4.7719    1.2709    2.8055 H       1  UNL11       0.0830
     34 H           2.6632    0.5777    1.6627 H       1  UNL11       0.0639
     35 H           1.4877   -0.9495    0.8226 H       1  UNL11       0.0627
     36 H           1.0915   -0.3785    0.6524 H       1  UNL11       0.0624
     37 H           2.4346    1.2286    2.0357 H       1  UNL11       0.0618
     38 H           1.4036    2.3095    3.9321 H       1  UNL11       0.0618
     39 H          -0.9588    1.8354    4.5353 H       1  UNL11       0.0627
@<TRIPOS>BOND
     1     1     2    2
     2     2     3   am
     3     3     4    1
     4     3    26    1
     5     4     5    2
     6     5     6    1
     7     5    20    1
     8     6     7    1
     9     6    27    1
    10     6    28    1
    11     7     8   ar
    12     8     9   ar
    13     8    29    1
    14     9    10   ar
    15     9    30    1
    16    10    11    1
    17    10    12   ar
    18    12    13    1
    19    12    19   ar
    20    13    14   ar
    21    14    15   ar
    22    14    31    1
    23    15    16   ar
    24    15    32    1
    25    16    17   ar
    26    17    18   ar
    27    17    33    1
    28    18    13   ar
    29    18    34    1
    30    19     7   ar
    31    19    35    1
    32    20    21   ar
    33    21    22   ar
    34    21    36    1
    35    22    23   ar
    36    22    37    1
    37    23    24   ar
    38    23    38    1
    39    24    25   ar
    40    24    39    1
    41    25     2    1
    42    25    20   ar
@<TRIPOS>MOLECULE
*****
 39 42 0 0 0
SMALL
GASTEIGER

@<TRIPOS>ATOM
      1 O           1.0106   -5.1385    3.9332 O.2     1  UNL11      -0.2116
      2 C           0.5727   -4.3593    3.0475 C.2     1  UNL11       0.4383
      3 N          -0.2130   -4.8035    2.0562 N.am    1  UNL11      -0.0356
      4 N          -0.6445   -3.9752    1.1607 N.2     1  UNL11      -0.0073
      5 C          -0.3749   -2.6338    1.1112 C.2     1  UNL11       0.1192
      6 C          -0.8741   -1.8207   -0.0254 C.3     1  UNL11       0.0211
      7 C           0.1694   -1.1553   -0.8164 C.ar    1  UNL11      -0.0406
      8 C           0.0458   -0.8909   -2.1405 C.ar    1  UNL11      -0.0555
      9 C           1.0623   -0.2468   -2.8716 C.ar    1  UNL11      -0.0256
     10 C           2.2166    0.1324   -2.2528 C.ar    1  UNL11       0.1311
     11 F           3.2155    0.7574   -2.9462 F       1  UNL11      -0.2049
     12 C           2.3870   -0.1157   -0.9080 C.ar    1  UNL11       0.0177
     13 C           3.6222    0.2903   -0.2320 C.ar    1  UNL11      -0.0123
     14 C           4.3582    1.3751   -0.6368 C.ar    1  UNL11      -0.0358
     15 C           5.5309    1.7426    0.0221 C.ar    1  UNL11       0.0281
     16 N           5.9426    1.0128    1.0755 N.ar    1  UNL11      -0.2632
     17 C           5.2503   -0.0549    1.5020 C.ar    1  UNL11       0.0281
     18 C           4.0702   -0.4334    0.8474 C.ar    1  UNL11      -0.0358
     19 C           1.3764   -0.7435   -0.2325 C.ar    1  UNL11      -0.0477
     20 C           0.4259   -2.1346    2.1103 C.ar    1  UNL11       0.0192
     21 C           0.7238   -0.7932    2.1504 C.ar    1  UNL11      -0.0518
     22 C           1.5102   -0.3245    3.1750 C.ar    1  UNL11      -0.0611
     23 C           1.9896   -1.1805    4.1426 C.ar    1  UNL11      -0.0608
     24 C           1.6913   -2.5258    4.1066 C.ar    1  UNL11      -0.0441
     25 C           0.9038   -2.9974    3.0829 C.ar    1  UNL11       0.1004
     26 H          -0.4462   -5.8432    2.0561 H       1  UNL11       0.4829
     27 H          -1.7084   -1.1507    0.2610 H       1  UNL11       0.0379
     28 H          -1.3647   -2.5616   -0.7259 H       1  UNL11       0.0379
     29 H          -0.7988   -1.1482   -2.7213 H       1  UNL11       0.0621
     30 H           0.9256   -0.0481   -3.9466 H       1  UNL11       0.0646
     31 H           4.0619    1.9815   -1.4755 H       1  UNL11       0.0639
     32 H           6.1317    2.5859   -0.2691 H       1  UNL11       0.0830
     33 H           5.6336   -0.5961    2.3522 H       1  UNL11       0.0830
     34 H           3.5298   -1.2967    1.2050 H       1  UNL11       0.0639
     35 H           1.4877   -0.9495    0.8226 H       1  UNL11       0.0627
     36 H           0.3400   -0.1368    1.4215 H       1  UNL11       0.0624
     37 H           1.7931    0.7192    3.2805 H       1  UNL11       0.0618
     38 H           2.6087   -0.8196    4.9522 H       1  UNL11       0.0618
     39 H           2.0402   -3.2350    4.8409 H       1  UNL11       0.0627
@<TRIPOS>BOND
     1     1     2    2
     2     2     3   am
     3     3     4    1
     4     3    26    1
     5     4     5    2
     6     5     6    1
     7     5    20    1
     8     6     7    1
     9     6    27    1
    10     6    28    1
    11     7     8   ar
    12     8     9   ar
    13     8    29    1
    14     9    10   ar
    15     9    30    1
    16    10    11    1
    17    10    12   ar
    18    12    13    1
    19    12    19   ar
    20    13    14   ar
    21    14    15   ar
    22    14    31    1
    23    15    16   ar
    24    15    32    1
    25    16    17   ar
    26    17    18   ar
    27    17    33    1
    28    18    13   ar
    29    18    34    1
    30    19     7   ar
    31    19    35    1
    32    20    21   ar
    33    21    22   ar
    34    21    36    1
    35    22    23   ar
    36    22    37    1
    37    23    24   ar
    38    23    38    1
    39    24    25   ar
    40    24    39    1
    41    25     2    1
    42    25    20   ar
@<TRIPOS>MOLECULE
*****
 39 42 0 0 0
SMALL
GASTEIGER

@<TRIPOS>ATOM
      1 O          -4.7481    1.5128    2.0020 O.2     1  UNL11      -0.2116
      2 C          -3.8436    0.7582    1.5595 C.2     1  UNL11       0.4383
      3 N          -3.5680    0.6962    0.2489 N.am    1  UNL11      -0.0356
      4 N          -2.6324   -0.0921   -0.1724 N.2     1  UNL11      -0.0073
      5 C          -1.8573   -0.9073    0.6080 C.2     1  UNL11       0.1192
      6 C          -0.8741   -1.8207   -0.0254 C.3     1  UNL11       0.0211
      7 C           0.1694   -1.1553   -0.8164 C.ar    1  UNL11      -0.0406
      8 C           0.0458   -0.8909   -2.1405 C.ar    1  UNL11      -0.0555
      9 C           1.0623   -0.2468   -2.8716 C.ar    1  UNL11      -0.0256
     10 C           2.2166    0.1324   -2.2528 C.ar    1  UNL11       0.1311
     11 F           3.2155    0.7574   -2.9462 F       1  UNL11      -0.2049
     12 C           2.3870   -0.1157   -0.9080 C.ar    1  UNL11       0.0177
     13 C           3.6222    0.2903   -0.2320 C.ar    1  UNL11      -0.0123
     14 C           4.6458    0.9230   -0.8909 C.ar    1  UNL11      -0.0358
     15 C           5.8124    1.3001   -0.2266 C.ar    1  UNL11       0.0281
     16 N           5.9290    1.0340    1.0877 N.ar    1  UNL11      -0.2632
     17 C           4.9499    0.4171    1.7675 C.ar    1  UNL11       0.0281
     18 C           3.7730    0.0337    1.1100 C.ar    1  UNL11      -0.0358
     19 C           1.3764   -0.7435   -0.2325 C.ar    1  UNL11      -0.0477
     20 C          -2.1044   -0.8741    1.9595 C.ar    1  UNL11       0.0192
     21 C          -1.3532   -1.6417    2.8174 C.ar    1  UNL11      -0.0518
     22 C          -1.6132   -1.5685    4.1646 C.ar    1  UNL11      -0.0611
     23 C          -2.6053   -0.7423    4.6460 C.ar    1  UNL11      -0.0608
     24 C          -3.3593    0.0304    3.7889 C.ar    1  UNL11      -0.0441
     25 C          -3.1006   -0.0403    2.4403 C.ar    1  UNL11       0.1004
     26 H          -4.1502    1.3141   -0.3950 H       1  UNL11       0.4829
     27 H          -1.3544   -2.6699   -0.5499 H       1  UNL11       0.0379
     28 H          -0.3355   -2.3186    0.8361 H       1  UNL11       0.0379
     29 H          -0.7988   -1.1482   -2.7213 H       1  UNL11       0.0621
     30 H           0.9256   -0.0481   -3.9466 H       1  UNL11       0.0646
     31 H           4.5899    1.1509   -1.9416 H       1  UNL11       0.0639
     32 H           6.6337    1.7965   -0.7123 H       1  UNL11       0.0830
     33 H           5.1054    0.2343    2.8187 H       1  UNL11       0.0830
     34 H           2.9988   -0.4635    1.6747 H       1  UNL11       0.0639
     35 H           1.4877   -0.9495    0.8226 H       1  UNL11       0.0627
     36 H          -0.5816   -2.2575    2.4498 H       1  UNL11       0.0624
     37 H          -1.0678   -2.1412    4.9095 H       1  UNL11       0.0618
     38 H          -2.8161   -0.6788    5.7046 H       1  UNL11       0.0618
     39 H          -4.1446    0.6936    4.1167 H       1  UNL11       0.0627
@<TRIPOS>BOND
     1     1     2    2
     2     2     3   am
     3     3     4    1
     4     3    26    1
     5     4     5    2
     6     5     6    1
     7     5    20    1
     8     6     7    1
     9     6    27    1
    10     6    28    1
    11     7     8   ar
    12     8     9   ar
    13     8    29    1
    14     9    10   ar
    15     9    30    1
    16    10    11    1
    17    10    12   ar
    18    12    13    1
    19    12    19   ar
    20    13    14   ar
    21    14    15   ar
    22    14    31    1
    23    15    16   ar
    24    15    32    1
    25    16    17   ar
    26    17    18   ar
    27    17    33    1
    28    18    13   ar
    29    18    34    1
    30    19     7   ar
    31    19    35    1
    32    20    21   ar
    33    21    22   ar
    34    21    36    1
    35    22    23   ar
    36    22    37    1
    37    23    24   ar
    38    23    38    1
    39    24    25   ar
    40    24    39    1
    41    25     2    1
    42    25    20   ar
@<TRIPOS>MOLECULE
*****
 39 42 0 0 0
SMALL
GASTEIGER

@<TRIPOS>ATOM
      1 O          -1.1737   -0.7248    5.3541 O.2     1  UNL11      -0.2116
      2 C          -1.1016   -0.9472    4.1178 C.2     1  UNL11       0.4383
      3 N          -1.9526   -1.7864    3.5105 N.am    1  UNL11      -0.0356
      4 N          -1.8491   -1.9937    2.2375 N.2     1  UNL11      -0.0073
      5 C          -0.9241   -1.4247    1.4039 C.2     1  UNL11       0.1192
      6 C          -0.8741   -1.8207   -0.0254 C.3     1  UNL11       0.0211
      7 C           0.1694   -1.1553   -0.8164 C.ar    1  UNL11      -0.0406
      8 C           0.0458   -0.8909   -2.1405 C.ar    1  UNL11      -0.0555
      9 C           1.0623   -0.2468   -2.8716 C.ar    1  UNL11      -0.0256
     10 C           2.2166    0.1324   -2.2528 C.ar    1  UNL11       0.1311
     11 F           3.2155    0.7574   -2.9462 F       1  UNL11      -0.2049
     12 C           2.3870   -0.1157   -0.9080 C.ar    1  UNL11       0.0177
     13 C           3.6222    0.2903   -0.2320 C.ar    1  UNL11      -0.0123
     14 C           4.1314   -0.3960    0.8413 C.ar    1  UNL11      -0.0358
     15 C           5.3088    0.0092    1.4688 C.ar    1  UNL11       0.0281
     16 N           5.9527    1.0970    1.0065 N.ar    1  UNL11      -0.2632
     17 C           5.4868    1.7948   -0.0410 C.ar    1  UNL11       0.0281
     18 C           4.3044    1.3966   -0.6795 C.ar    1  UNL11      -0.0358
     19 C           1.3764   -0.7435   -0.2325 C.ar    1  UNL11      -0.0477
     20 C          -0.0321   -0.5551    1.9843 C.ar    1  UNL11       0.0192
     21 C           0.9126    0.0805    1.2141 C.ar    1  UNL11      -0.0518
     22 C           1.7752    0.9594    1.8234 C.ar    1  UNL11      -0.0611
     23 C           1.6947    1.1997    3.1778 C.ar    1  UNL11      -0.0608
     24 C           0.7474    0.5657    3.9530 C.ar    1  UNL11      -0.0441
     25 C          -0.1177   -0.3137    3.3456 C.ar    1  UNL11       0.1004
     26 H          -2.6884   -2.2530    4.1240 H       1  UNL11       0.4829
     27 H          -1.8710   -1.8098   -0.5080 H       1  UNL11       0.0379
     28 H          -0.6008   -2.9186   -0.0185 H       1  UNL11       0.0379
     29 H          -0.7988   -1.1482   -2.7213 H       1  UNL11       0.0621
     30 H           0.9256   -0.0481   -3.9466 H       1  UNL11       0.0646
     31 H           3.6440   -1.2690    1.2403 H       1  UNL11       0.0639
     32 H           5.7349   -0.5049    2.3121 H       1  UNL11       0.0830
     33 H           6.0505    2.6558   -0.3627 H       1  UNL11       0.0830
     34 H           3.9456    1.9732   -1.5187 H       1  UNL11       0.0639
     35 H           1.4877   -0.9495    0.8226 H       1  UNL11       0.0627
     36 H           0.9598   -0.0888    0.1755 H       1  UNL11       0.0624
     37 H           2.5502    1.5020    1.2892 H       1  UNL11       0.0618
     38 H           2.3695    1.8900    3.6649 H       1  UNL11       0.0618
     39 H           0.6428    0.7217    5.0154 H       1  UNL11       0.0627
@<TRIPOS>BOND
     1     1     2    2
     2     2     3   am
     3     3     4    1
     4     3    26    1
     5     4     5    2
     6     5     6    1
     7     5    20    1
     8     6     7    1
     9     6    27    1
    10     6    28    1
    11     7     8   ar
    12     8     9   ar
    13     8    29    1
    14     9    10   ar
    15     9    30    1
    16    10    11    1
    17    10    12   ar
    18    12    13    1
    19    12    19   ar
    20    13    14   ar
    21    14    15   ar
    22    14    31    1
    23    15    16   ar
    24    15    32    1
    25    16    17   ar
    26    17    18   ar
    27    17    33    1
    28    18    13   ar
    29    18    34    1
    30    19     7   ar
    31    19    35    1
    32    20    21   ar
    33    21    22   ar
    34    21    36    1
    35    22    23   ar
    36    22    37    1
    37    23    24   ar
    38    23    38    1
    39    24    25   ar
    40    24    39    1
    41    25     2    1
    42    25    20   ar
@<TRIPOS>MOLECULE
*****
 39 42 0 0 0
SMALL
GASTEIGER

@<TRIPOS>ATOM
      1 O          -0.9707   -0.7298    5.3626 O.2     1  UNL11      -0.2116
      2 C          -0.9598   -0.9531    4.1244 C.2     1  UNL11       0.4383
      3 N          -1.3762   -2.1253    3.6245 N.am    1  UNL11      -0.0356
      4 N          -1.3499   -2.3222    2.3460 N.2     1  UNL11      -0.0073
      5 C          -0.9241   -1.4247    1.4039 C.2     1  UNL11       0.1192
      6 C          -0.8741   -1.8207   -0.0254 C.3     1  UNL11       0.0211
      7 C           0.1694   -1.1553   -0.8164 C.ar    1  UNL11      -0.0406
      8 C           0.0458   -0.8909   -2.1405 C.ar    1  UNL11      -0.0555
      9 C           1.0623   -0.2468   -2.8716 C.ar    1  UNL11      -0.0256
     10 C           2.2166    0.1324   -2.2528 C.ar    1  UNL11       0.1311
     11 F           3.2155    0.7574   -2.9462 F       1  UNL11      -0.2049
     12 C           2.3870   -0.1157   -0.9080 C.ar    1  UNL11       0.0177
     13 C           3.6222    0.2903   -0.2320 C.ar    1  UNL11      -0.0123
     14 C           4.1314   -0.3960    0.8413 C.ar    1  UNL11      -0.0358
     15 C           5.3088    0.0092    1.4688 C.ar    1  UNL11       0.0281
     16 N           5.9527    1.0970    1.0065 N.ar    1  UNL11      -0.2632
     17 C           5.4868    1.7948   -0.0410 C.ar    1  UNL11       0.0281
     18 C           4.3044    1.3966   -0.6795 C.ar    1  UNL11      -0.0358
     19 C           1.3764   -0.7435   -0.2325 C.ar    1  UNL11      -0.0477
     20 C          -0.4899   -0.2077    1.8720 C.ar    1  UNL11       0.0192
     21 C          -0.0707    0.7608    0.9912 C.ar    1  UNL11      -0.0518
     22 C           0.3372    1.9735    1.4922 C.ar    1  UNL11      -0.0611
     23 C           0.3255    2.2144    2.8488 C.ar    1  UNL11      -0.0608
     24 C          -0.0961    1.2463    3.7349 C.ar    1  UNL11      -0.0441
     25 C          -0.5057    0.0321    3.2362 C.ar    1  UNL11       0.1004
     26 H          -1.7146   -2.8539    4.3246 H       1  UNL11       0.4829
     27 H          -1.8710   -1.8098   -0.5080 H       1  UNL11       0.0379
     28 H          -0.6008   -2.9186   -0.0185 H       1  UNL11       0.0379
     29 H          -0.7988   -1.1482   -2.7213 H       1  UNL11       0.0621
     30 H           0.9256   -0.0481   -3.9466 H       1  UNL11       0.0646
     31 H           3.6440   -1.2690    1.2403 H       1  UNL11       0.0639
     32 H           5.7349   -0.5049    2.3121 H       1  UNL11       0.0830
     33 H           6.0505    2.6558   -0.3627 H       1  UNL11       0.0830
     34 H           3.9456    1.9732   -1.5187 H       1  UNL11       0.0639
     35 H           1.4877   -0.9495    0.8226 H       1  UNL11       0.0627
     36 H          -0.0815    0.5823   -0.0469 H       1  UNL11       0.0624
     37 H           0.6834    2.7915    0.8666 H       1  UNL11       0.0618
     38 H           0.6446    3.1660    3.2511 H       1  UNL11       0.0618
     39 H          -0.1258    1.3871    4.8042 H       1  UNL11       0.0627
@<TRIPOS>BOND
     1     1     2    2
     2     2     3   am
     3     3     4    1
     4     3    26    1
     5     4     5    2
     6     5     6    1
     7     5    20    1
     8     6     7    1
     9     6    27    1
    10     6    28    1
    11     7     8   ar
    12     8     9   ar
    13     8    29    1
    14     9    10   ar
    15     9    30    1
    16    10    11    1
    17    10    12   ar
    18    12    13    1
    19    12    19   ar
    20    13    14   ar
    21    14    15   ar
    22    14    31    1
    23    15    16   ar
    24    15    32    1
    25    16    17   ar
    26    17    18   ar
    27    17    33    1
    28    18    13   ar
    29    18    34    1
    30    19     7   ar
    31    19    35    1
    32    20    21   ar
    33    21    22   ar
    34    21    36    1
    35    22    23   ar
    36    22    37    1
    37    23    24   ar
    38    23    38    1
    39    24    25   ar
    40    24    39    1
    41    25     2    1
    42    25    20   ar
@<TRIPOS>MOLECULE
*****
 39 42 0 0 0
SMALL
GASTEIGER

@<TRIPOS>ATOM
      1 O           0.7488   -6.6836    1.9616 O.2     1  UNL11      -0.2116
      2 C           0.3668   -5.5639    1.5331 C.2     1  UNL11       0.4383
      3 N          -0.2515   -5.4454    0.3495 N.am    1  UNL11      -0.0356
      4 N          -0.6297   -4.2784   -0.0617 N.2     1  UNL11      -0.0073
      5 C          -0.4604   -3.0969    0.6089 C.2     1  UNL11       0.1192
      6 C          -0.8741   -1.8207   -0.0254 C.3     1  UNL11       0.0211
      7 C           0.1694   -1.1553   -0.8164 C.ar    1  UNL11      -0.0406
      8 C           0.0458   -0.8909   -2.1405 C.ar    1  UNL11      -0.0555
      9 C           1.0623   -0.2468   -2.8716 C.ar    1  UNL11      -0.0256
     10 C           2.2166    0.1324   -2.2528 C.ar    1  UNL11       0.1311
     11 F           3.2155    0.7574   -2.9462 F       1  UNL11      -0.2049
     12 C           2.3870   -0.1157   -0.9080 C.ar    1  UNL11       0.0177
     13 C           3.6222    0.2903   -0.2320 C.ar    1  UNL11      -0.0123
     14 C           4.3582    1.3751   -0.6368 C.ar    1  UNL11      -0.0358
     15 C           5.5309    1.7426    0.0221 C.ar    1  UNL11       0.0281
     16 N           5.9426    1.0128    1.0755 N.ar    1  UNL11      -0.2632
     17 C           5.2503   -0.0549    1.5020 C.ar    1  UNL11       0.0281
     18 C           4.0702   -0.4334    0.8474 C.ar    1  UNL11      -0.0358
     19 C           1.3764   -0.7435   -0.2325 C.ar    1  UNL11      -0.0477
     20 C           0.1676   -3.1718    1.8290 C.ar    1  UNL11       0.0192
     21 C           0.3536   -2.0358    2.5803 C.ar    1  UNL11      -0.0518
     22 C           0.9666   -2.1499    3.8047 C.ar    1  UNL11      -0.0611
     23 C           1.3852   -3.3773    4.2705 C.ar    1  UNL11      -0.0608
     24 C           1.1985   -4.5189    3.5208 C.ar    1  UNL11      -0.0441
     25 C           0.5847   -4.4077    2.2955 C.ar    1  UNL11       0.1004
     26 H          -0.4018   -6.3418   -0.2068 H       1  UNL11       0.4829
     27 H          -1.3977   -1.1431    0.6772 H       1  UNL11       0.0379
     28 H          -1.6833   -2.1059   -0.7630 H       1  UNL11       0.0379
     29 H          -0.7988   -1.1482   -2.7213 H       1  UNL11       0.0621
     30 H           0.9256   -0.0481   -3.9466 H       1  UNL11       0.0646
     31 H           4.0619    1.9815   -1.4755 H       1  UNL11       0.0639
     32 H           6.1317    2.5859   -0.2691 H       1  UNL11       0.0830
     33 H           5.6336   -0.5961    2.3522 H       1  UNL11       0.0830
     34 H           3.5298   -1.2967    1.2050 H       1  UNL11       0.0639
     35 H           1.4877   -0.9495    0.8226 H       1  UNL11       0.0627
     36 H           0.0150   -1.1012    2.2318 H       1  UNL11       0.0624
     37 H           1.1525   -1.3036    4.4601 H       1  UNL11       0.0618
     38 H           1.8680   -3.4757    5.2330 H       1  UNL11       0.0618
     39 H           1.5061   -5.5018    3.8423 H       1  UNL11       0.0627
@<TRIPOS>BOND
     1     1     2    2
     2     2     3   am
     3     3     4    1
     4     3    26    1
     5     4     5    2
     6     5     6    1
     7     5    20    1
     8     6     7    1
     9     6    27    1
    10     6    28    1
    11     7     8   ar
    12     8     9   ar
    13     8    29    1
    14     9    10   ar
    15     9    30    1
    16    10    11    1
    17    10    12   ar
    18    12    13    1
    19    12    19   ar
    20    13    14   ar
    21    14    15   ar
    22    14    31    1
    23    15    16   ar
    24    15    32    1
    25    16    17   ar
    26    17    18   ar
    27    17    33    1
    28    18    13   ar
    29    18    34    1
    30    19     7   ar
    31    19    35    1
    32    20    21   ar
    33    21    22   ar
    34    21    36    1
    35    22    23   ar
    36    22    37    1
    37    23    24   ar
    38    23    38    1
    39    24    25   ar
    40    24    39    1
    41    25     2    1
    42    25    20   ar
@<TRIPOS>MOLECULE
*****
 39 42 0 0 0
SMALL
GASTEIGER

@<TRIPOS>ATOM
      1 O          -5.8842    0.4435   -0.0712 O.2     1  UNL11      -0.2116
      2 C          -4.7262   -0.0485   -0.0549 C.2     1  UNL11       0.4383
      3 N          -4.3267   -0.9196   -0.9923 N.am    1  UNL11      -0.0356
      4 N          -3.1294   -1.4078   -0.9445 N.2     1  UNL11      -0.0073
      5 C          -2.1819   -1.1199    0.0009 C.2     1  UNL11       0.1192
      6 C          -0.8741   -1.8207   -0.0254 C.3     1  UNL11       0.0211
      7 C           0.1694   -1.1553   -0.8164 C.ar    1  UNL11      -0.0406
      8 C           0.0458   -0.8909   -2.1405 C.ar    1  UNL11      -0.0555
      9 C           1.0623   -0.2468   -2.8716 C.ar    1  UNL11      -0.0256
     10 C           2.2166    0.1324   -2.2528 C.ar    1  UNL11       0.1311
     11 F           3.2155    0.7574   -2.9462 F       1  UNL11      -0.2049
     12 C           2.3870   -0.1157   -0.9080 C.ar    1  UNL11       0.0177
     13 C           3.6222    0.2903   -0.2320 C.ar    1  UNL11      -0.0123
     14 C           4.8275    0.3585   -0.8839 C.ar    1  UNL11      -0.0358
     15 C           5.9902    0.7476   -0.2196 C.ar    1  UNL11       0.0281
     16 N           5.9203    1.0606    1.0876 N.ar    1  UNL11      -0.2632
     17 C           4.7602    1.0065    1.7602 C.ar    1  UNL11       0.0281
     18 C           3.5853    0.6169    1.1027 C.ar    1  UNL11      -0.0358
     19 C           1.3764   -0.7435   -0.2325 C.ar    1  UNL11      -0.0477
     20 C          -2.5482   -0.2288    0.9810 C.ar    1  UNL11       0.0192
     21 C          -1.6478    0.1358    1.9536 C.ar    1  UNL11      -0.0518
     22 C          -2.0406    1.0449    2.9060 C.ar    1  UNL11      -0.0611
     23 C          -3.3099    1.5808    2.8864 C.ar    1  UNL11      -0.0608
     24 C          -4.2148    1.2190    1.9115 C.ar    1  UNL11      -0.0441
     25 C          -3.8241    0.3101    0.9566 C.ar    1  UNL11       0.1004
     26 H          -5.0350   -1.1730   -1.7470 H       1  UNL11       0.4829
     27 H          -0.9722   -2.9027   -0.2415 H       1  UNL11       0.0379
     28 H          -0.5070   -1.8018    1.0447 H       1  UNL11       0.0379
     29 H          -0.7988   -1.1482   -2.7213 H       1  UNL11       0.0621
     30 H           0.9256   -0.0481   -3.9466 H       1  UNL11       0.0646
     31 H           4.9232    0.1143   -1.9279 H       1  UNL11       0.0639
     32 H           6.9507    0.8110   -0.6996 H       1  UNL11       0.0830
     33 H           4.7719    1.2709    2.8055 H       1  UNL11       0.0830
     34 H           2.6632    0.5777    1.6627 H       1  UNL11       0.0639
     35 H           1.4877   -0.9495    0.8226 H       1  UNL11       0.0627
     36 H          -0.6714   -0.2593    1.9555 H       1  UNL11       0.0624
     37 H          -1.3926    1.3859    3.7086 H       1  UNL11       0.0618
     38 H          -3.6268    2.2969    3.6320 H       1  UNL11       0.0618
     39 H          -5.2180    1.6116    1.8520 H       1  UNL11       0.0627
@<TRIPOS>BOND
     1     1     2    2
     2     2     3   am
     3     3     4    1
     4     3    26    1
     5     4     5    2
     6     5     6    1
     7     5    20    1
     8     6     7    1
     9     6    27    1
    10     6    28    1
    11     7     8   ar
    12     8     9   ar
    13     8    29    1
    14     9    10   ar
    15     9    30    1
    16    10    11    1
    17    10    12   ar
    18    12    13    1
    19    12    19   ar
    20    13    14   ar
    21    14    15   ar
    22    14    31    1
    23    15    16   ar
    24    15    32    1
    25    16    17   ar
    26    17    18   ar
    27    17    33    1
    28    18    13   ar
    29    18    34    1
    30    19     7   ar
    31    19    35    1
    32    20    21   ar
    33    21    22   ar
    34    21    36    1
    35    22    23   ar
    36    22    37    1
    37    23    24   ar
    38    23    38    1
    39    24    25   ar
    40    24    39    1
    41    25     2    1
    42    25    20   ar
