@<TRIPOS>MOLECULE
*****
 43 47 0 0 0
SMALL
GASTEIGER

@<TRIPOS>ATOM
      1 N          -1.9329    1.5557   -2.2430 N.2     1  UNL11      -0.2917
      2 C          -2.9084    1.0037   -1.5610 C.2     1  UNL11       0.2504
      3 C          -4.3016    1.1271   -2.0474 C.3     1  UNL11       0.0478
      4 C          -5.2017    0.1901   -1.2848 C.3     1  UNL11      -0.0318
      5 C          -5.1258    0.3812    0.2143 C.3     1  UNL11       0.0484
      6 C          -3.6849    0.3393    0.6330 C.2     1  UNL11       0.3083
      7 O          -3.3960    0.3655    1.8608 O.2     1  UNL11      -0.2471
      8 N          -2.6615    0.2716   -0.3694 N.am    1  UNL11      -0.1261
      9 C          -1.4808   -0.4848   -0.1950 C.ar    1  UNL11       0.1718
     10 C          -1.0425   -1.5268   -0.9722 C.ar    1  UNL11       0.0312
     11 C          -0.3681   -2.6250   -1.6029 C.ar    1  UNL11      -0.0418
     12 C           0.1897   -2.0249   -0.4420 C.ar    1  UNL11      -0.0068
     13 C           0.4534   -1.2326    0.6731 C.ar    1  UNL11       0.0057
     14 C           1.6473   -1.4818    1.5224 C.3     1  UNL11       0.0245
     15 C           2.4885   -0.2928    1.5220 C.2     1  UNL11       0.1193
     16 N           3.4594   -0.2062    0.5563 N.2     1  UNL11      -0.0073
     17 N           4.2330    0.8432    0.4497 N.am    1  UNL11      -0.0356
     18 C           4.1280    1.8820    1.2620 C.2     1  UNL11       0.4383
     19 O           4.9045    2.8726    1.1142 O.2     1  UNL11      -0.2116
     20 C           3.1853    1.9053    2.2705 C.ar    1  UNL11       0.1004
     21 C           3.0732    2.9720    3.1201 C.ar    1  UNL11      -0.0441
     22 C           2.1239    2.9407    4.1160 C.ar    1  UNL11      -0.0608
     23 C           1.3023    1.8342    4.2378 C.ar    1  UNL11      -0.0611
     24 C           1.4328    0.7718    3.3709 C.ar    1  UNL11      -0.0518
     25 C           2.3621    0.7633    2.3688 C.ar    1  UNL11       0.0192
     26 C          -0.5378   -0.3171    0.8245 C.ar    1  UNL11       0.1730
     27 F          -0.6239    0.6166    1.8349 F       1  UNL11      -0.2009
     28 H          -2.2072    2.0628   -3.1140 H       1  UNL11       0.3006
     29 H          -0.9381    1.5379   -1.9712 H       1  UNL11       0.3006
     30 H          -4.3425    0.8078   -3.1202 H       1  UNL11       0.0386
     31 H          -4.6635    2.1803   -2.0089 H       1  UNL11       0.0386
     32 H          -6.2392    0.2779   -1.6615 H       1  UNL11       0.0276
     33 H          -4.8134   -0.8553   -1.4857 H       1  UNL11       0.0276
     34 H          -5.6669   -0.4978    0.6688 H       1  UNL11       0.0382
     35 H          -5.6417    1.2684    0.5841 H       1  UNL11       0.0382
     36 H          -0.3421   -3.3439   -2.3853 H       1  UNL11       0.0631
     37 H           1.3504   -1.8155    2.5458 H       1  UNL11       0.0380
     38 H           2.1872   -2.3416    1.0735 H       1  UNL11       0.0380
     39 H           4.9629    0.8386   -0.3169 H       1  UNL11       0.4829
     40 H           3.7087    3.8177    3.0119 H       1  UNL11       0.0627
     41 H           2.0275    3.7744    4.7864 H       1  UNL11       0.0618
     42 H           0.5484    1.7774    5.0097 H       1  UNL11       0.0618
     43 H           0.8053   -0.1195    3.4525 H       1  UNL11       0.0624
@<TRIPOS>BOND
     1     1     2    2
     2     1    28    1
     3     1    29    1
     4     2     3    1
     5     3     4    1
     6     3    30    1
     7     3    31    1
     8     4     5    1
     9     4    32    1
    10     4    33    1
    11     5     6    1
    12     5    34    1
    13     5    35    1
    14     6     7    2
    15     6     8   am
    16     8     9    1
    17     8     2    1
    18     9    10   ar
    19    10    11   ar
    20    11    12   ar
    21    11    36    1
    22    12    13   ar
    23    12    10    1
    24    13    14    1
    25    13    26   ar
    26    14    15    1
    27    14    37    1
    28    14    38    1
    29    15    16    2
    30    16    17    1
    31    17    18   am
    32    17    39    1
    33    18    19    2
    34    18    20    1
    35    20    21   ar
    36    21    22   ar
    37    21    40    1
    38    22    23   ar
    39    22    41    1
    40    23    24   ar
    41    23    42    1
    42    24    25   ar
    43    24    43    1
    44    25    15    1
    45    25    20   ar
    46    26    27    1
    47    26     9   ar
@<TRIPOS>MOLECULE
*****
 43 47 0 0 0
SMALL
GASTEIGER

@<TRIPOS>ATOM
      1 N          -4.1455   -1.5554   -0.7570 N.2     1  UNL11      -0.2917
      2 C          -3.9463   -0.3319   -0.3269 C.2     1  UNL11       0.2504
      3 C          -5.0792    0.4394    0.2340 C.3     1  UNL11       0.0478
      4 C          -4.5718    1.6815    0.9191 C.3     1  UNL11      -0.0318
      5 C          -3.7112    2.5453    0.0231 C.3     1  UNL11       0.0484
      6 C          -2.6400    1.6889   -0.5872 C.2     1  UNL11       0.3083
      7 O          -1.7375    2.2292   -1.2839 O.2     1  UNL11      -0.2471
      8 N          -2.6615    0.2716   -0.3694 N.am    1  UNL11      -0.1261
      9 C          -1.4808   -0.4848   -0.1950 C.ar    1  UNL11       0.1718
     10 C          -1.0425   -1.5268   -0.9722 C.ar    1  UNL11       0.0312
     11 C          -0.3681   -2.6250   -1.6029 C.ar    1  UNL11      -0.0418
     12 C           0.1897   -2.0249   -0.4420 C.ar    1  UNL11      -0.0068
     13 C           0.4534   -1.2326    0.6731 C.ar    1  UNL11       0.0057
     14 C           1.6473   -1.4818    1.5224 C.3     1  UNL11       0.0245
     15 C           1.2121   -1.7794    2.8801 C.2     1  UNL11       0.1193
     16 N           1.9996   -2.6196    3.6260 N.2     1  UNL11      -0.0073
     17 N           1.7131   -2.9091    4.8691 N.am    1  UNL11      -0.0356
     18 C           0.6515   -2.4121    5.4822 C.2     1  UNL11       0.4383
     19 O           0.4208   -2.7270    6.6879 O.2     1  UNL11      -0.2116
     20 C          -0.2117   -1.5547    4.8294 C.ar    1  UNL11       0.1004
     21 C          -1.3161   -1.0407    5.4525 C.ar    1  UNL11      -0.0441
     22 C          -2.1508   -0.1987    4.7536 C.ar    1  UNL11      -0.0608
     23 C          -1.8570    0.1118    3.4377 C.ar    1  UNL11      -0.0611
     24 C          -0.7394   -0.4171    2.8309 C.ar    1  UNL11      -0.0518
     25 C           0.1149   -1.2564    3.4893 C.ar    1  UNL11       0.0192
     26 C          -0.5378   -0.3171    0.8245 C.ar    1  UNL11       0.1730
     27 F          -0.6239    0.6166    1.8349 F       1  UNL11      -0.2009
     28 H          -5.1202   -1.9216   -0.6739 H       1  UNL11       0.3006
     29 H          -3.4229   -2.1582   -1.1793 H       1  UNL11       0.3006
     30 H          -5.5848   -0.1765    1.0212 H       1  UNL11       0.0386
     31 H          -5.8476    0.6710   -0.5391 H       1  UNL11       0.0386
     32 H          -5.4220    2.2471    1.3471 H       1  UNL11       0.0276
     33 H          -3.8938    1.3273    1.7551 H       1  UNL11       0.0276
     34 H          -3.2306    3.3117    0.6966 H       1  UNL11       0.0382
     35 H          -4.2654    3.1152   -0.7239 H       1  UNL11       0.0382
     36 H          -0.3421   -3.3439   -2.3853 H       1  UNL11       0.0631
     37 H           2.2971   -2.2751    1.0803 H       1  UNL11       0.0380
     38 H           2.2553   -0.5533    1.5025 H       1  UNL11       0.0380
     39 H           2.3640   -3.5678    5.3818 H       1  UNL11       0.4829
     40 H          -1.5271   -1.2847    6.4658 H       1  UNL11       0.0627
     41 H          -3.0191    0.2110    5.2353 H       1  UNL11       0.0618
     42 H          -2.4926    0.7680    2.8608 H       1  UNL11       0.0618
     43 H          -0.4907   -0.1981    1.7891 H       1  UNL11       0.0624
@<TRIPOS>BOND
     1     1     2    2
     2     1    28    1
     3     1    29    1
     4     2     3    1
     5     3     4    1
     6     3    30    1
     7     3    31    1
     8     4     5    1
     9     4    32    1
    10     4    33    1
    11     5     6    1
    12     5    34    1
    13     5    35    1
    14     6     7    2
    15     6     8   am
    16     8     9    1
    17     8     2    1
    18     9    10   ar
    19    10    11   ar
    20    11    12   ar
    21    11    36    1
    22    12    13   ar
    23    12    10    1
    24    13    14    1
    25    13    26   ar
    26    14    15    1
    27    14    37    1
    28    14    38    1
    29    15    16    2
    30    16    17    1
    31    17    18   am
    32    17    39    1
    33    18    19    2
    34    18    20    1
    35    20    21   ar
    36    21    22   ar
    37    21    40    1
    38    22    23   ar
    39    22    41    1
    40    23    24   ar
    41    23    42    1
    42    24    25   ar
    43    24    43    1
    44    25    15    1
    45    25    20   ar
    46    26    27    1
    47    26     9   ar
@<TRIPOS>MOLECULE
*****
 43 47 0 0 0
SMALL
GASTEIGER

@<TRIPOS>ATOM
      1 N          -2.6828    1.3121    1.7771 N.2     1  UNL11      -0.2917
      2 C          -2.9980    1.3399    0.5038 C.2     1  UNL11       0.2504
      3 C          -3.7063    2.5173   -0.0485 C.3     1  UNL11       0.0478
      4 C          -3.7057    2.4632   -1.5541 C.3     1  UNL11      -0.0318
      5 C          -4.2759    1.1737   -2.1031 C.3     1  UNL11       0.0484
      6 C          -3.5839    0.0194   -1.4382 C.2     1  UNL11       0.3083
      7 O          -3.8254   -1.1556   -1.8291 O.2     1  UNL11      -0.2471
      8 N          -2.6615    0.2716   -0.3694 N.am    1  UNL11      -0.1261
      9 C          -1.4808   -0.4848   -0.1950 C.ar    1  UNL11       0.1718
     10 C          -1.0425   -1.5268   -0.9722 C.ar    1  UNL11       0.0312
     11 C          -0.3681   -2.6250   -1.6029 C.ar    1  UNL11      -0.0418
     12 C           0.1897   -2.0249   -0.4420 C.ar    1  UNL11      -0.0068
     13 C           0.4534   -1.2326    0.6731 C.ar    1  UNL11       0.0057
     14 C           1.6473   -1.4818    1.5224 C.3     1  UNL11       0.0245
     15 C           2.0924   -0.2209    2.0999 C.2     1  UNL11       0.1193
     16 N           3.3651    0.1961    1.8017 N.2     1  UNL11      -0.0073
     17 N           3.8363    1.3357    2.2379 N.am    1  UNL11      -0.0356
     18 C           3.1187    2.1539    2.9899 C.2     1  UNL11       0.4383
     19 O           3.6255    3.2458    3.3861 O.2     1  UNL11      -0.2116
     20 C           1.8244    1.8377    3.3518 C.ar    1  UNL11       0.1004
     21 C           1.0762    2.6740    4.1350 C.ar    1  UNL11      -0.0441
     22 C          -0.2055    2.3068    4.4764 C.ar    1  UNL11      -0.0608
     23 C          -0.7119    1.1024    4.0212 C.ar    1  UNL11      -0.0611
     24 C           0.0593    0.2765    3.2337 C.ar    1  UNL11      -0.0518
     25 C           1.3359    0.6038    2.8719 C.ar    1  UNL11       0.0192
     26 C          -0.5378   -0.3171    0.8245 C.ar    1  UNL11       0.1730
     27 F          -0.6239    0.6166    1.8349 F       1  UNL11      -0.2009
     28 H          -2.9583    2.1478    2.3398 H       1  UNL11       0.3006
     29 H          -2.2085    0.5285    2.2513 H       1  UNL11       0.3006
     30 H          -3.1489    3.4453    0.2387 H       1  UNL11       0.0386
     31 H          -4.7355    2.6159    0.3671 H       1  UNL11       0.0386
     32 H          -4.2254    3.3522   -1.9610 H       1  UNL11       0.0276
     33 H          -2.6179    2.4829   -1.8710 H       1  UNL11       0.0276
     34 H          -4.0287    1.1667   -3.2035 H       1  UNL11       0.0382
     35 H          -5.3625    1.0982   -2.0444 H       1  UNL11       0.0382
     36 H          -0.3421   -3.3439   -2.3853 H       1  UNL11       0.0631
     37 H           1.4410   -2.2712    2.2847 H       1  UNL11       0.0380
     38 H           2.4306   -1.9051    0.8594 H       1  UNL11       0.0380
     39 H           4.8285    1.5905    1.9713 H       1  UNL11       0.4829
     40 H           1.4771    3.5988    4.4740 H       1  UNL11       0.0627
     41 H          -0.8007    2.9580    5.0892 H       1  UNL11       0.0618
     42 H          -1.7133    0.7840    4.2727 H       1  UNL11       0.0618
     43 H          -0.3117   -0.6858    2.8710 H       1  UNL11       0.0624
@<TRIPOS>BOND
     1     1     2    2
     2     1    28    1
     3     1    29    1
     4     2     3    1
     5     3     4    1
     6     3    30    1
     7     3    31    1
     8     4     5    1
     9     4    32    1
    10     4    33    1
    11     5     6    1
    12     5    34    1
    13     5    35    1
    14     6     7    2
    15     6     8   am
    16     8     9    1
    17     8     2    1
    18     9    10   ar
    19    10    11   ar
    20    11    12   ar
    21    11    36    1
    22    12    13   ar
    23    12    10    1
    24    13    14    1
    25    13    26   ar
    26    14    15    1
    27    14    37    1
    28    14    38    1
    29    15    16    2
    30    16    17    1
    31    17    18   am
    32    17    39    1
    33    18    19    2
    34    18    20    1
    35    20    21   ar
    36    21    22   ar
    37    21    40    1
    38    22    23   ar
    39    22    41    1
    40    23    24   ar
    41    23    42    1
    42    24    25   ar
    43    24    43    1
    44    25    15    1
    45    25    20   ar
    46    26    27    1
    47    26     9   ar
@<TRIPOS>MOLECULE
*****
 43 47 0 0 0
SMALL
GASTEIGER

@<TRIPOS>ATOM
      1 N          -1.6445    2.2282   -1.2791 N.2     1  UNL11      -0.2917
      2 C          -2.6867    1.4375   -1.1798 C.2     1  UNL11       0.2504
      3 C          -3.9175    1.7512   -1.9413 C.3     1  UNL11       0.0478
      4 C          -4.8616    0.5776   -1.9066 C.3     1  UNL11      -0.0318
      5 C          -5.1883    0.1185   -0.5024 C.3     1  UNL11       0.0484
      6 C          -3.9044   -0.0926    0.2463 C.2     1  UNL11       0.3083
      7 O          -3.9386   -0.5862    1.4069 O.2     1  UNL11      -0.2471
      8 N          -2.6615    0.2716   -0.3694 N.am    1  UNL11      -0.1261
      9 C          -1.4808   -0.4848   -0.1950 C.ar    1  UNL11       0.1718
     10 C          -1.0425   -1.5268   -0.9722 C.ar    1  UNL11       0.0312
     11 C          -0.3681   -2.6250   -1.6029 C.ar    1  UNL11      -0.0418
     12 C           0.1897   -2.0249   -0.4420 C.ar    1  UNL11      -0.0068
     13 C           0.4534   -1.2326    0.6731 C.ar    1  UNL11       0.0057
     14 C           1.6473   -1.4818    1.5224 C.3     1  UNL11       0.0245
     15 C           2.7645   -0.6969    1.0154 C.2     1  UNL11       0.1193
     16 N           2.7893   -0.4290   -0.3300 N.2     1  UNL11      -0.0073
     17 N           3.7284    0.3051   -0.8689 N.am    1  UNL11      -0.0356
     18 C           4.7082    0.8330   -0.1538 C.2     1  UNL11       0.4383
     19 O           5.5930    1.5357   -0.7277 O.2     1  UNL11      -0.2116
     20 C           4.7837    0.6307    1.2098 C.ar    1  UNL11       0.1004
     21 C           5.7969    1.1667    1.9573 C.ar    1  UNL11      -0.0441
     22 C           5.8323    0.9258    3.3118 C.ar    1  UNL11      -0.0608
     23 C           4.8443    0.1490    3.8904 C.ar    1  UNL11      -0.0611
     24 C           3.8338   -0.3801    3.1184 C.ar    1  UNL11      -0.0518
     25 C           3.7619   -0.1648    1.7708 C.ar    1  UNL11       0.0192
     26 C          -0.5378   -0.3171    0.8245 C.ar    1  UNL11       0.1730
     27 F          -0.6239    0.6166    1.8349 F       1  UNL11      -0.2009
     28 H          -1.7497    3.0548   -1.9089 H       1  UNL11       0.3006
     29 H          -0.7551    2.0999   -0.7726 H       1  UNL11       0.3006
     30 H          -3.6489    1.9143   -3.0163 H       1  UNL11       0.0386
     31 H          -4.4007    2.6889   -1.5823 H       1  UNL11       0.0386
     32 H          -5.7739    0.8136   -2.4880 H       1  UNL11       0.0276
     33 H          -4.3130   -0.2844   -2.3967 H       1  UNL11       0.0276
     34 H          -5.7171   -0.8715   -0.6128 H       1  UNL11       0.0382
     35 H          -5.8828    0.7656    0.0352 H       1  UNL11       0.0382
     36 H          -0.3421   -3.3439   -2.3853 H       1  UNL11       0.0631
     37 H           1.4222   -1.2900    2.5992 H       1  UNL11       0.0380
     38 H           1.8700   -2.5671    1.4532 H       1  UNL11       0.0380
     39 H           3.6856    0.4664   -1.9141 H       1  UNL11       0.4829
     40 H           6.5471    1.7655    1.4996 H       1  UNL11       0.0627
     41 H           6.6228    1.3441    3.9067 H       1  UNL11       0.0618
     42 H           4.8441   -0.0604    4.9504 H       1  UNL11       0.0618
     43 H           3.0480   -1.0072    3.5479 H       1  UNL11       0.0624
@<TRIPOS>BOND
     1     1     2    2
     2     1    28    1
     3     1    29    1
     4     2     3    1
     5     3     4    1
     6     3    30    1
     7     3    31    1
     8     4     5    1
     9     4    32    1
    10     4    33    1
    11     5     6    1
    12     5    34    1
    13     5    35    1
    14     6     7    2
    15     6     8   am
    16     8     9    1
    17     8     2    1
    18     9    10   ar
    19    10    11   ar
    20    11    12   ar
    21    11    36    1
    22    12    13   ar
    23    12    10    1
    24    13    14    1
    25    13    26   ar
    26    14    15    1
    27    14    37    1
    28    14    38    1
    29    15    16    2
    30    16    17    1
    31    17    18   am
    32    17    39    1
    33    18    19    2
    34    18    20    1
    35    20    21   ar
    36    21    22   ar
    37    21    40    1
    38    22    23   ar
    39    22    41    1
    40    23    24   ar
    41    23    42    1
    42    24    25   ar
    43    24    43    1
    44    25    15    1
    45    25    20   ar
    46    26    27    1
    47    26     9   ar
@<TRIPOS>MOLECULE
*****
 43 47 0 0 0
SMALL
GASTEIGER

@<TRIPOS>ATOM
      1 N          -4.1455   -1.5554   -0.7570 N.2     1  UNL11      -0.2917
      2 C          -3.9463   -0.3319   -0.3269 C.2     1  UNL11       0.2504
      3 C          -5.0792    0.4394    0.2340 C.3     1  UNL11       0.0478
      4 C          -4.5718    1.6815    0.9191 C.3     1  UNL11      -0.0318
      5 C          -3.7112    2.5453    0.0231 C.3     1  UNL11       0.0484
      6 C          -2.6400    1.6889   -0.5872 C.2     1  UNL11       0.3083
      7 O          -1.7375    2.2292   -1.2839 O.2     1  UNL11      -0.2471
      8 N          -2.6615    0.2716   -0.3694 N.am    1  UNL11      -0.1261
      9 C          -1.4808   -0.4848   -0.1950 C.ar    1  UNL11       0.1718
     10 C          -1.0425   -1.5268   -0.9722 C.ar    1  UNL11       0.0312
     11 C          -0.3681   -2.6250   -1.6029 C.ar    1  UNL11      -0.0418
     12 C           0.1897   -2.0249   -0.4420 C.ar    1  UNL11      -0.0068
     13 C           0.4534   -1.2326    0.6731 C.ar    1  UNL11       0.0057
     14 C           1.6473   -1.4818    1.5224 C.3     1  UNL11       0.0245
     15 C           1.2121   -1.7794    2.8801 C.2     1  UNL11       0.1193
     16 N           2.0511   -1.4218    3.9051 N.2     1  UNL11      -0.0073
     17 N           1.7258   -1.6085    5.1583 N.am    1  UNL11      -0.0356
     18 C           0.5729   -2.1508    5.5143 C.2     1  UNL11       0.4383
     19 O           0.3093   -2.3094    6.7437 O.2     1  UNL11      -0.2116
     20 C          -0.3499   -2.5482    4.5673 C.ar    1  UNL11       0.1004
     21 C          -1.5422   -3.1163    4.9250 C.ar    1  UNL11      -0.0441
     22 C          -2.4229   -3.5051    3.9416 C.ar    1  UNL11      -0.0608
     23 C          -2.0868   -3.3134    2.6132 C.ar    1  UNL11      -0.0611
     24 C          -0.8810   -2.7392    2.2764 C.ar    1  UNL11      -0.0518
     25 C           0.0211   -2.3391    3.2219 C.ar    1  UNL11       0.0192
     26 C          -0.5378   -0.3171    0.8245 C.ar    1  UNL11       0.1730
     27 F          -0.6239    0.6166    1.8349 F       1  UNL11      -0.2009
     28 H          -5.1202   -1.9216   -0.6739 H       1  UNL11       0.3006
     29 H          -3.4229   -2.1582   -1.1793 H       1  UNL11       0.3006
     30 H          -5.5848   -0.1765    1.0212 H       1  UNL11       0.0386
     31 H          -5.8476    0.6710   -0.5391 H       1  UNL11       0.0386
     32 H          -5.4220    2.2471    1.3471 H       1  UNL11       0.0276
     33 H          -3.8938    1.3273    1.7551 H       1  UNL11       0.0276
     34 H          -3.2306    3.3117    0.6966 H       1  UNL11       0.0382
     35 H          -4.2654    3.1152   -0.7239 H       1  UNL11       0.0382
     36 H          -0.3421   -3.3439   -2.3853 H       1  UNL11       0.0631
     37 H           2.2971   -2.2751    1.0803 H       1  UNL11       0.0380
     38 H           2.2553   -0.5533    1.5025 H       1  UNL11       0.0380
     39 H           2.4246   -1.3116    5.8958 H       1  UNL11       0.4829
     40 H          -1.7890   -3.2535    5.9502 H       1  UNL11       0.0627
     41 H          -3.3620   -3.9502    4.2131 H       1  UNL11       0.0618
     42 H          -2.7549   -3.6091    1.8171 H       1  UNL11       0.0618
     43 H          -0.5853   -2.5876    1.2350 H       1  UNL11       0.0624
@<TRIPOS>BOND
     1     1     2    2
     2     1    28    1
     3     1    29    1
     4     2     3    1
     5     3     4    1
     6     3    30    1
     7     3    31    1
     8     4     5    1
     9     4    32    1
    10     4    33    1
    11     5     6    1
    12     5    34    1
    13     5    35    1
    14     6     7    2
    15     6     8   am
    16     8     9    1
    17     8     2    1
    18     9    10   ar
    19    10    11   ar
    20    11    12   ar
    21    11    36    1
    22    12    13   ar
    23    12    10    1
    24    13    14    1
    25    13    26   ar
    26    14    15    1
    27    14    37    1
    28    14    38    1
    29    15    16    2
    30    16    17    1
    31    17    18   am
    32    17    39    1
    33    18    19    2
    34    18    20    1
    35    20    21   ar
    36    21    22   ar
    37    21    40    1
    38    22    23   ar
    39    22    41    1
    40    23    24   ar
    41    23    42    1
    42    24    25   ar
    43    24    43    1
    44    25    15    1
    45    25    20   ar
    46    26    27    1
    47    26     9   ar
@<TRIPOS>MOLECULE
*****
 43 47 0 0 0
SMALL
GASTEIGER

@<TRIPOS>ATOM
      1 N          -4.1455   -1.5554   -0.7570 N.2     1  UNL11      -0.2917
      2 C          -3.9463   -0.3319   -0.3269 C.2     1  UNL11       0.2504
      3 C          -5.0792    0.4394    0.2340 C.3     1  UNL11       0.0478
      4 C          -4.5718    1.6815    0.9191 C.3     1  UNL11      -0.0318
      5 C          -3.7112    2.5453    0.0231 C.3     1  UNL11       0.0484
      6 C          -2.6400    1.6889   -0.5872 C.2     1  UNL11       0.3083
      7 O          -1.7375    2.2292   -1.2839 O.2     1  UNL11      -0.2471
      8 N          -2.6615    0.2716   -0.3694 N.am    1  UNL11      -0.1261
      9 C          -1.4808   -0.4848   -0.1950 C.ar    1  UNL11       0.1718
     10 C          -1.0425   -1.5268   -0.9722 C.ar    1  UNL11       0.0312
     11 C          -0.3681   -2.6250   -1.6029 C.ar    1  UNL11      -0.0418
     12 C           0.1897   -2.0249   -0.4420 C.ar    1  UNL11      -0.0068
     13 C           0.4534   -1.2326    0.6731 C.ar    1  UNL11       0.0057
     14 C           1.6473   -1.4818    1.5224 C.3     1  UNL11       0.0245
     15 C           2.4885   -0.2928    1.5220 C.2     1  UNL11       0.1193
     16 N           2.2571    0.6451    2.4963 N.2     1  UNL11      -0.0073
     17 N           2.9903    1.7232    2.6024 N.am    1  UNL11      -0.0356
     18 C           3.9963    1.9754    1.7813 C.2     1  UNL11       0.4383
     19 O           4.6736    3.0363    1.9290 O.2     1  UNL11      -0.2116
     20 C           4.3215    1.1009    0.7636 C.ar    1  UNL11       0.1004
     21 C           5.3558    1.3559   -0.0952 C.ar    1  UNL11      -0.0441
     22 C           5.6319    0.4569   -1.1000 C.ar    1  UNL11      -0.0608
     23 C           4.8606   -0.6853   -1.2213 C.ar    1  UNL11      -0.0611
     24 C           3.8245   -0.9216   -0.3452 C.ar    1  UNL11      -0.0518
     25 C           3.5176   -0.0548    0.6659 C.ar    1  UNL11       0.0192
     26 C          -0.5378   -0.3171    0.8245 C.ar    1  UNL11       0.1730
     27 F          -0.6239    0.6166    1.8349 F       1  UNL11      -0.2009
     28 H          -5.1202   -1.9216   -0.6739 H       1  UNL11       0.3006
     29 H          -3.4229   -2.1582   -1.1793 H       1  UNL11       0.3006
     30 H          -5.5848   -0.1765    1.0212 H       1  UNL11       0.0386
     31 H          -5.8476    0.6710   -0.5391 H       1  UNL11       0.0386
     32 H          -5.4220    2.2471    1.3471 H       1  UNL11       0.0276
     33 H          -3.8938    1.3273    1.7551 H       1  UNL11       0.0276
     34 H          -3.2306    3.3117    0.6966 H       1  UNL11       0.0382
     35 H          -4.2654    3.1152   -0.7239 H       1  UNL11       0.0382
     36 H          -0.3421   -3.3439   -2.3853 H       1  UNL11       0.0631
     37 H           1.3504   -1.8155    2.5458 H       1  UNL11       0.0380
     38 H           2.1872   -2.3416    1.0735 H       1  UNL11       0.0380
     39 H           2.7510    2.4048    3.3761 H       1  UNL11       0.4829
     40 H           5.9429    2.2360    0.0127 H       1  UNL11       0.0627
     41 H           6.4431    0.6480   -1.7777 H       1  UNL11       0.0618
     42 H           5.0500   -1.4101   -2.0001 H       1  UNL11       0.0618
     43 H           3.1920   -1.8096   -0.4261 H       1  UNL11       0.0624
@<TRIPOS>BOND
     1     1     2    2
     2     1    28    1
     3     1    29    1
     4     2     3    1
     5     3     4    1
     6     3    30    1
     7     3    31    1
     8     4     5    1
     9     4    32    1
    10     4    33    1
    11     5     6    1
    12     5    34    1
    13     5    35    1
    14     6     7    2
    15     6     8   am
    16     8     9    1
    17     8     2    1
    18     9    10   ar
    19    10    11   ar
    20    11    12   ar
    21    11    36    1
    22    12    13   ar
    23    12    10    1
    24    13    14    1
    25    13    26   ar
    26    14    15    1
    27    14    37    1
    28    14    38    1
    29    15    16    2
    30    16    17    1
    31    17    18   am
    32    17    39    1
    33    18    19    2
    34    18    20    1
    35    20    21   ar
    36    21    22   ar
    37    21    40    1
    38    22    23   ar
    39    22    41    1
    40    23    24   ar
    41    23    42    1
    42    24    25   ar
    43    24    43    1
    44    25    15    1
    45    25    20   ar
    46    26    27    1
    47    26     9   ar
@<TRIPOS>MOLECULE
*****
 43 47 0 0 0
SMALL
GASTEIGER

@<TRIPOS>ATOM
      1 N          -1.6445    2.2282   -1.2791 N.2     1  UNL11      -0.2917
      2 C          -2.6867    1.4375   -1.1798 C.2     1  UNL11       0.2504
      3 C          -3.9175    1.7512   -1.9413 C.3     1  UNL11       0.0478
      4 C          -4.8616    0.5776   -1.9066 C.3     1  UNL11      -0.0318
      5 C          -5.1883    0.1185   -0.5024 C.3     1  UNL11       0.0484
      6 C          -3.9044   -0.0926    0.2463 C.2     1  UNL11       0.3083
      7 O          -3.9386   -0.5862    1.4069 O.2     1  UNL11      -0.2471
      8 N          -2.6615    0.2716   -0.3694 N.am    1  UNL11      -0.1261
      9 C          -1.4808   -0.4848   -0.1950 C.ar    1  UNL11       0.1718
     10 C          -1.0425   -1.5268   -0.9722 C.ar    1  UNL11       0.0312
     11 C          -0.3681   -2.6250   -1.6029 C.ar    1  UNL11      -0.0418
     12 C           0.1897   -2.0249   -0.4420 C.ar    1  UNL11      -0.0068
     13 C           0.4534   -1.2326    0.6731 C.ar    1  UNL11       0.0057
     14 C           1.6473   -1.4818    1.5224 C.3     1  UNL11       0.0245
     15 C           2.0924   -0.2209    2.0999 C.2     1  UNL11       0.1193
     16 N           2.1124   -0.1251    3.4684 N.2     1  UNL11      -0.0073
     17 N           2.5386    0.9514    4.0772 N.am    1  UNL11      -0.0356
     18 C           2.9754    2.0099    3.4148 C.2     1  UNL11       0.4383
     19 O           3.3762    3.0273    4.0555 O.2     1  UNL11      -0.2116
     20 C           3.0016    2.0255    2.0345 C.ar    1  UNL11       0.1004
     21 C           3.4451    3.1179    1.3400 C.ar    1  UNL11      -0.0441
     22 C           3.4407    3.0863   -0.0359 C.ar    1  UNL11      -0.0608
     23 C           2.9900    1.9528   -0.6887 C.ar    1  UNL11      -0.0611
     24 C           2.5484    0.8646    0.0310 C.ar    1  UNL11      -0.0518
     25 C           2.5367    0.8552    1.3976 C.ar    1  UNL11       0.0192
     26 C          -0.5378   -0.3171    0.8245 C.ar    1  UNL11       0.1730
     27 F          -0.6239    0.6166    1.8349 F       1  UNL11      -0.2009
     28 H          -1.7497    3.0548   -1.9089 H       1  UNL11       0.3006
     29 H          -0.7551    2.0999   -0.7726 H       1  UNL11       0.3006
     30 H          -3.6489    1.9143   -3.0163 H       1  UNL11       0.0386
     31 H          -4.4007    2.6889   -1.5823 H       1  UNL11       0.0386
     32 H          -5.7739    0.8136   -2.4880 H       1  UNL11       0.0276
     33 H          -4.3130   -0.2844   -2.3967 H       1  UNL11       0.0276
     34 H          -5.7171   -0.8715   -0.6128 H       1  UNL11       0.0382
     35 H          -5.8828    0.7656    0.0352 H       1  UNL11       0.0382
     36 H          -0.3421   -3.3439   -2.3853 H       1  UNL11       0.0631
     37 H           1.4410   -2.2712    2.2847 H       1  UNL11       0.0380
     38 H           2.4306   -1.9051    0.8594 H       1  UNL11       0.0380
     39 H           2.5215    0.9556    5.1356 H       1  UNL11       0.4829
     40 H           3.7928    3.9807    1.8552 H       1  UNL11       0.0627
     41 H           3.7888    3.9386   -0.5893 H       1  UNL11       0.0618
     42 H           2.9719    1.8965   -1.7676 H       1  UNL11       0.0618
     43 H           2.1756   -0.0385   -0.4594 H       1  UNL11       0.0624
@<TRIPOS>BOND
     1     1     2    2
     2     1    28    1
     3     1    29    1
     4     2     3    1
     5     3     4    1
     6     3    30    1
     7     3    31    1
     8     4     5    1
     9     4    32    1
    10     4    33    1
    11     5     6    1
    12     5    34    1
    13     5    35    1
    14     6     7    2
    15     6     8   am
    16     8     9    1
    17     8     2    1
    18     9    10   ar
    19    10    11   ar
    20    11    12   ar
    21    11    36    1
    22    12    13   ar
    23    12    10    1
    24    13    14    1
    25    13    26   ar
    26    14    15    1
    27    14    37    1
    28    14    38    1
    29    15    16    2
    30    16    17    1
    31    17    18   am
    32    17    39    1
    33    18    19    2
    34    18    20    1
    35    20    21   ar
    36    21    22   ar
    37    21    40    1
    38    22    23   ar
    39    22    41    1
    40    23    24   ar
    41    23    42    1
    42    24    25   ar
    43    24    43    1
    44    25    15    1
    45    25    20   ar
    46    26    27    1
    47    26     9   ar
@<TRIPOS>MOLECULE
*****
 43 47 0 0 0
SMALL
GASTEIGER

@<TRIPOS>ATOM
      1 N          -4.1455   -1.5554   -0.7570 N.2     1  UNL11      -0.2917
      2 C          -3.9463   -0.3319   -0.3269 C.2     1  UNL11       0.2504
      3 C          -5.0792    0.4394    0.2340 C.3     1  UNL11       0.0478
      4 C          -4.5718    1.6815    0.9191 C.3     1  UNL11      -0.0318
      5 C          -3.7112    2.5453    0.0231 C.3     1  UNL11       0.0484
      6 C          -2.6400    1.6889   -0.5872 C.2     1  UNL11       0.3083
      7 O          -1.7375    2.2292   -1.2839 O.2     1  UNL11      -0.2471
      8 N          -2.6615    0.2716   -0.3694 N.am    1  UNL11      -0.1261
      9 C          -1.4808   -0.4848   -0.1950 C.ar    1  UNL11       0.1718
     10 C          -1.0425   -1.5268   -0.9722 C.ar    1  UNL11       0.0312
     11 C          -0.3681   -2.6250   -1.6029 C.ar    1  UNL11      -0.0418
     12 C           0.1897   -2.0249   -0.4420 C.ar    1  UNL11      -0.0068
     13 C           0.4534   -1.2326    0.6731 C.ar    1  UNL11       0.0057
     14 C           1.6473   -1.4818    1.5224 C.3     1  UNL11       0.0245
     15 C           2.8482   -1.3273    0.7128 C.2     1  UNL11       0.1193
     16 N           3.7494   -0.3665    1.0964 N.2     1  UNL11      -0.0073
     17 N           4.8763   -0.1851    0.4575 N.am    1  UNL11      -0.0356
     18 C           5.2163   -0.9133   -0.5932 C.2     1  UNL11       0.4383
     19 O           6.3205   -0.6941   -1.1754 O.2     1  UNL11      -0.2116
     20 C           4.3870   -1.9099   -1.0677 C.ar    1  UNL11       0.1004
     21 C           4.7264   -2.6641   -2.1577 C.ar    1  UNL11      -0.0441
     22 C           3.8591   -3.6382   -2.5971 C.ar    1  UNL11      -0.0608
     23 C           2.6639   -3.8362   -1.9289 C.ar    1  UNL11      -0.0611
     24 C           2.3431   -3.0652   -0.8335 C.ar    1  UNL11      -0.0518
     25 C           3.1762   -2.0883   -0.3651 C.ar    1  UNL11       0.0192
     26 C          -0.5378   -0.3171    0.8245 C.ar    1  UNL11       0.1730
     27 F          -0.6239    0.6166    1.8349 F       1  UNL11      -0.2009
     28 H          -5.1202   -1.9216   -0.6739 H       1  UNL11       0.3006
     29 H          -3.4229   -2.1582   -1.1793 H       1  UNL11       0.3006
     30 H          -5.5848   -0.1765    1.0212 H       1  UNL11       0.0386
     31 H          -5.8476    0.6710   -0.5391 H       1  UNL11       0.0386
     32 H          -5.4220    2.2471    1.3471 H       1  UNL11       0.0276
     33 H          -3.8938    1.3273    1.7551 H       1  UNL11       0.0276
     34 H          -3.2306    3.3117    0.6966 H       1  UNL11       0.0382
     35 H          -4.2654    3.1152   -0.7239 H       1  UNL11       0.0382
     36 H          -0.3421   -3.3439   -2.3853 H       1  UNL11       0.0631
     37 H           1.6375   -0.8325    2.4308 H       1  UNL11       0.0380
     38 H           1.5622   -2.5225    1.8991 H       1  UNL11       0.0380
     39 H           5.5213    0.5777    0.8077 H       1  UNL11       0.4829
     40 H           5.6505   -2.5037   -2.6589 H       1  UNL11       0.0627
     41 H           4.1182   -4.2363   -3.4509 H       1  UNL11       0.0618
     42 H           1.9604   -4.5912   -2.2493 H       1  UNL11       0.0618
     43 H           1.4003   -3.1924   -0.2950 H       1  UNL11       0.0624
@<TRIPOS>BOND
     1     1     2    2
     2     1    28    1
     3     1    29    1
     4     2     3    1
     5     3     4    1
     6     3    30    1
     7     3    31    1
     8     4     5    1
     9     4    32    1
    10     4    33    1
    11     5     6    1
    12     5    34    1
    13     5    35    1
    14     6     7    2
    15     6     8   am
    16     8     9    1
    17     8     2    1
    18     9    10   ar
    19    10    11   ar
    20    11    12   ar
    21    11    36    1
    22    12    13   ar
    23    12    10    1
    24    13    14    1
    25    13    26   ar
    26    14    15    1
    27    14    37    1
    28    14    38    1
    29    15    16    2
    30    16    17    1
    31    17    18   am
    32    17    39    1
    33    18    19    2
    34    18    20    1
    35    20    21   ar
    36    21    22   ar
    37    21    40    1
    38    22    23   ar
    39    22    41    1
    40    23    24   ar
    41    23    42    1
    42    24    25   ar
    43    24    43    1
    44    25    15    1
    45    25    20   ar
    46    26    27    1
    47    26     9   ar
@<TRIPOS>MOLECULE
*****
 43 47 0 0 0
SMALL
GASTEIGER

@<TRIPOS>ATOM
      1 N          -4.1455   -1.5554   -0.7570 N.2     1  UNL11      -0.2917
      2 C          -3.9463   -0.3319   -0.3269 C.2     1  UNL11       0.2504
      3 C          -5.0792    0.4394    0.2340 C.3     1  UNL11       0.0478
      4 C          -4.5718    1.6815    0.9191 C.3     1  UNL11      -0.0318
      5 C          -3.7112    2.5453    0.0231 C.3     1  UNL11       0.0484
      6 C          -2.6400    1.6889   -0.5872 C.2     1  UNL11       0.3083
      7 O          -1.7375    2.2292   -1.2839 O.2     1  UNL11      -0.2471
      8 N          -2.6615    0.2716   -0.3694 N.am    1  UNL11      -0.1261
      9 C          -1.4808   -0.4848   -0.1950 C.ar    1  UNL11       0.1718
     10 C          -1.0425   -1.5268   -0.9722 C.ar    1  UNL11       0.0312
     11 C          -0.3681   -2.6250   -1.6029 C.ar    1  UNL11      -0.0418
     12 C           0.1897   -2.0249   -0.4420 C.ar    1  UNL11      -0.0068
     13 C           0.4534   -1.2326    0.6731 C.ar    1  UNL11       0.0057
     14 C           1.6473   -1.4818    1.5224 C.3     1  UNL11       0.0245
     15 C           1.2121   -1.7794    2.8801 C.2     1  UNL11       0.1193
     16 N           0.0393   -1.2093    3.3068 N.2     1  UNL11      -0.0073
     17 N          -0.4534   -1.4538    4.4936 N.am    1  UNL11      -0.0356
     18 C           0.1450   -2.2626    5.3526 C.2     1  UNL11       0.4383
     19 O          -0.3763   -2.4633    6.4902 O.2     1  UNL11      -0.2116
     20 C           1.3304   -2.8927    5.0305 C.ar    1  UNL11       0.1004
     21 C           1.9608   -3.7257    5.9144 C.ar    1  UNL11      -0.0441
     22 C           3.1464   -4.3208    5.5480 C.ar    1  UNL11      -0.0608
     23 C           3.6762   -4.0666    4.2955 C.ar    1  UNL11      -0.0611
     24 C           3.0242   -3.2248    3.4218 C.ar    1  UNL11      -0.0518
     25 C           1.8453   -2.6145    3.7463 C.ar    1  UNL11       0.0192
     26 C          -0.5378   -0.3171    0.8245 C.ar    1  UNL11       0.1730
     27 F          -0.6239    0.6166    1.8349 F       1  UNL11      -0.2009
     28 H          -5.1202   -1.9216   -0.6739 H       1  UNL11       0.3006
     29 H          -3.4229   -2.1582   -1.1793 H       1  UNL11       0.3006
     30 H          -5.5848   -0.1765    1.0212 H       1  UNL11       0.0386
     31 H          -5.8476    0.6710   -0.5391 H       1  UNL11       0.0386
     32 H          -5.4220    2.2471    1.3471 H       1  UNL11       0.0276
     33 H          -3.8938    1.3273    1.7551 H       1  UNL11       0.0276
     34 H          -3.2306    3.3117    0.6966 H       1  UNL11       0.0382
     35 H          -4.2654    3.1152   -0.7239 H       1  UNL11       0.0382
     36 H          -0.3421   -3.3439   -2.3853 H       1  UNL11       0.0631
     37 H           2.2971   -2.2751    1.0803 H       1  UNL11       0.0380
     38 H           2.2553   -0.5533    1.5025 H       1  UNL11       0.0380
     39 H          -1.3604   -0.9754    4.7562 H       1  UNL11       0.4829
     40 H           1.5395   -3.9151    6.8722 H       1  UNL11       0.0627
     41 H           3.6472   -4.9776    6.2348 H       1  UNL11       0.0618
     42 H           4.6060   -4.5164    3.9778 H       1  UNL11       0.0618
     43 H           3.4269   -2.9973    2.4313 H       1  UNL11       0.0624
@<TRIPOS>BOND
     1     1     2    2
     2     1    28    1
     3     1    29    1
     4     2     3    1
     5     3     4    1
     6     3    30    1
     7     3    31    1
     8     4     5    1
     9     4    32    1
    10     4    33    1
    11     5     6    1
    12     5    34    1
    13     5    35    1
    14     6     7    2
    15     6     8   am
    16     8     9    1
    17     8     2    1
    18     9    10   ar
    19    10    11   ar
    20    11    12   ar
    21    11    36    1
    22    12    13   ar
    23    12    10    1
    24    13    14    1
    25    13    26   ar
    26    14    15    1
    27    14    37    1
    28    14    38    1
    29    15    16    2
    30    16    17    1
    31    17    18   am
    32    17    39    1
    33    18    19    2
    34    18    20    1
    35    20    21   ar
    36    21    22   ar
    37    21    40    1
    38    22    23   ar
    39    22    41    1
    40    23    24   ar
    41    23    42    1
    42    24    25   ar
    43    24    43    1
    44    25    15    1
    45    25    20   ar
    46    26    27    1
    47    26     9   ar
@<TRIPOS>MOLECULE
*****
 43 47 0 0 0
SMALL
GASTEIGER

@<TRIPOS>ATOM
      1 N          -1.6445    2.2282   -1.2791 N.2     1  UNL11      -0.2917
      2 C          -2.6867    1.4375   -1.1798 C.2     1  UNL11       0.2504
      3 C          -3.9175    1.7512   -1.9413 C.3     1  UNL11       0.0478
      4 C          -4.8616    0.5776   -1.9066 C.3     1  UNL11      -0.0318
      5 C          -5.1883    0.1185   -0.5024 C.3     1  UNL11       0.0484
      6 C          -3.9044   -0.0926    0.2463 C.2     1  UNL11       0.3083
      7 O          -3.9386   -0.5862    1.4069 O.2     1  UNL11      -0.2471
      8 N          -2.6615    0.2716   -0.3694 N.am    1  UNL11      -0.1261
      9 C          -1.4808   -0.4848   -0.1950 C.ar    1  UNL11       0.1718
     10 C          -1.0425   -1.5268   -0.9722 C.ar    1  UNL11       0.0312
     11 C          -0.3681   -2.6250   -1.6029 C.ar    1  UNL11      -0.0418
     12 C           0.1897   -2.0249   -0.4420 C.ar    1  UNL11      -0.0068
     13 C           0.4534   -1.2326    0.6731 C.ar    1  UNL11       0.0057
     14 C           1.6473   -1.4818    1.5224 C.3     1  UNL11       0.0245
     15 C           2.4885   -0.2928    1.5220 C.2     1  UNL11       0.1193
     16 N           2.2571    0.6451    2.4963 N.2     1  UNL11      -0.0073
     17 N           2.9903    1.7232    2.6024 N.am    1  UNL11      -0.0356
     18 C           3.9963    1.9754    1.7813 C.2     1  UNL11       0.4383
     19 O           4.6736    3.0363    1.9290 O.2     1  UNL11      -0.2116
     20 C           4.3215    1.1009    0.7636 C.ar    1  UNL11       0.1004
     21 C           5.3558    1.3559   -0.0952 C.ar    1  UNL11      -0.0441
     22 C           5.6319    0.4569   -1.1000 C.ar    1  UNL11      -0.0608
     23 C           4.8606   -0.6853   -1.2213 C.ar    1  UNL11      -0.0611
     24 C           3.8245   -0.9216   -0.3452 C.ar    1  UNL11      -0.0518
     25 C           3.5176   -0.0548    0.6659 C.ar    1  UNL11       0.0192
     26 C          -0.5378   -0.3171    0.8245 C.ar    1  UNL11       0.1730
     27 F          -0.6239    0.6166    1.8349 F       1  UNL11      -0.2009
     28 H          -1.7497    3.0548   -1.9089 H       1  UNL11       0.3006
     29 H          -0.7551    2.0999   -0.7726 H       1  UNL11       0.3006
     30 H          -3.6489    1.9143   -3.0163 H       1  UNL11       0.0386
     31 H          -4.4007    2.6889   -1.5823 H       1  UNL11       0.0386
     32 H          -5.7739    0.8136   -2.4880 H       1  UNL11       0.0276
     33 H          -4.3130   -0.2844   -2.3967 H       1  UNL11       0.0276
     34 H          -5.7171   -0.8715   -0.6128 H       1  UNL11       0.0382
     35 H          -5.8828    0.7656    0.0352 H       1  UNL11       0.0382
     36 H          -0.3421   -3.3439   -2.3853 H       1  UNL11       0.0631
     37 H           1.3504   -1.8155    2.5458 H       1  UNL11       0.0380
     38 H           2.1872   -2.3416    1.0735 H       1  UNL11       0.0380
     39 H           2.7510    2.4048    3.3761 H       1  UNL11       0.4829
     40 H           5.9429    2.2360    0.0127 H       1  UNL11       0.0627
     41 H           6.4431    0.6480   -1.7777 H       1  UNL11       0.0618
     42 H           5.0500   -1.4101   -2.0001 H       1  UNL11       0.0618
     43 H           3.1920   -1.8096   -0.4261 H       1  UNL11       0.0624
@<TRIPOS>BOND
     1     1     2    2
     2     1    28    1
     3     1    29    1
     4     2     3    1
     5     3     4    1
     6     3    30    1
     7     3    31    1
     8     4     5    1
     9     4    32    1
    10     4    33    1
    11     5     6    1
    12     5    34    1
    13     5    35    1
    14     6     7    2
    15     6     8   am
    16     8     9    1
    17     8     2    1
    18     9    10   ar
    19    10    11   ar
    20    11    12   ar
    21    11    36    1
    22    12    13   ar
    23    12    10    1
    24    13    14    1
    25    13    26   ar
    26    14    15    1
    27    14    37    1
    28    14    38    1
    29    15    16    2
    30    16    17    1
    31    17    18   am
    32    17    39    1
    33    18    19    2
    34    18    20    1
    35    20    21   ar
    36    21    22   ar
    37    21    40    1
    38    22    23   ar
    39    22    41    1
    40    23    24   ar
    41    23    42    1
    42    24    25   ar
    43    24    43    1
    44    25    15    1
    45    25    20   ar
    46    26    27    1
    47    26     9   ar
@<TRIPOS>MOLECULE
*****
 43 47 0 0 0
SMALL
GASTEIGER

@<TRIPOS>ATOM
      1 N          -1.6445    2.2282   -1.2791 N.2     1  UNL11      -0.2917
      2 C          -2.6867    1.4375   -1.1798 C.2     1  UNL11       0.2504
      3 C          -3.9175    1.7512   -1.9413 C.3     1  UNL11       0.0478
      4 C          -4.8616    0.5776   -1.9066 C.3     1  UNL11      -0.0318
      5 C          -5.1883    0.1185   -0.5024 C.3     1  UNL11       0.0484
      6 C          -3.9044   -0.0926    0.2463 C.2     1  UNL11       0.3083
      7 O          -3.9386   -0.5862    1.4069 O.2     1  UNL11      -0.2471
      8 N          -2.6615    0.2716   -0.3694 N.am    1  UNL11      -0.1261
      9 C          -1.4808   -0.4848   -0.1950 C.ar    1  UNL11       0.1718
     10 C          -1.0425   -1.5268   -0.9722 C.ar    1  UNL11       0.0312
     11 C          -0.3681   -2.6250   -1.6029 C.ar    1  UNL11      -0.0418
     12 C           0.1897   -2.0249   -0.4420 C.ar    1  UNL11      -0.0068
     13 C           0.4534   -1.2326    0.6731 C.ar    1  UNL11       0.0057
     14 C           1.6473   -1.4818    1.5224 C.3     1  UNL11       0.0245
     15 C           1.6617   -0.5212    2.6172 C.2     1  UNL11       0.1193
     16 N           0.5982   -0.5353    3.4839 N.2     1  UNL11      -0.0073
     17 N           0.5449    0.2595    4.5215 N.am    1  UNL11      -0.0356
     18 C           1.5086    1.1222    4.7991 C.2     1  UNL11       0.4383
     19 O           1.4049    1.8696    5.8173 O.2     1  UNL11      -0.2116
     20 C           2.6274    1.2230    3.9965 C.ar    1  UNL11       0.1004
     21 C           3.6265    2.1168    4.2712 C.ar    1  UNL11      -0.0441
     22 C           4.7160    2.1850    3.4331 C.ar    1  UNL11      -0.0608
     23 C           4.7803    1.3496    2.3321 C.ar    1  UNL11      -0.0611
     24 C           3.7630    0.4573    2.0753 C.ar    1  UNL11      -0.0518
     25 C           2.6646    0.3577    2.8823 C.ar    1  UNL11       0.0192
     26 C          -0.5378   -0.3171    0.8245 C.ar    1  UNL11       0.1730
     27 F          -0.6239    0.6166    1.8349 F       1  UNL11      -0.2009
     28 H          -1.7497    3.0548   -1.9089 H       1  UNL11       0.3006
     29 H          -0.7551    2.0999   -0.7726 H       1  UNL11       0.3006
     30 H          -3.6489    1.9143   -3.0163 H       1  UNL11       0.0386
     31 H          -4.4007    2.6889   -1.5823 H       1  UNL11       0.0386
     32 H          -5.7739    0.8136   -2.4880 H       1  UNL11       0.0276
     33 H          -4.3130   -0.2844   -2.3967 H       1  UNL11       0.0276
     34 H          -5.7171   -0.8715   -0.6128 H       1  UNL11       0.0382
     35 H          -5.8828    0.7656    0.0352 H       1  UNL11       0.0382
     36 H          -0.3421   -3.3439   -2.3853 H       1  UNL11       0.0631
     37 H           1.6837   -2.5445    1.8634 H       1  UNL11       0.0380
     38 H           2.5374   -1.3465    0.8731 H       1  UNL11       0.0380
     39 H          -0.3085    0.1961    5.1445 H       1  UNL11       0.4829
     40 H           3.5655    2.7497    5.1235 H       1  UNL11       0.0627
     41 H           5.5058    2.8823    3.6420 H       1  UNL11       0.0618
     42 H           5.6207    1.3793    1.6536 H       1  UNL11       0.0618
     43 H           3.7828   -0.2053    1.2060 H       1  UNL11       0.0624
@<TRIPOS>BOND
     1     1     2    2
     2     1    28    1
     3     1    29    1
     4     2     3    1
     5     3     4    1
     6     3    30    1
     7     3    31    1
     8     4     5    1
     9     4    32    1
    10     4    33    1
    11     5     6    1
    12     5    34    1
    13     5    35    1
    14     6     7    2
    15     6     8   am
    16     8     9    1
    17     8     2    1
    18     9    10   ar
    19    10    11   ar
    20    11    12   ar
    21    11    36    1
    22    12    13   ar
    23    12    10    1
    24    13    14    1
    25    13    26   ar
    26    14    15    1
    27    14    37    1
    28    14    38    1
    29    15    16    2
    30    16    17    1
    31    17    18   am
    32    17    39    1
    33    18    19    2
    34    18    20    1
    35    20    21   ar
    36    21    22   ar
    37    21    40    1
    38    22    23   ar
    39    22    41    1
    40    23    24   ar
    41    23    42    1
    42    24    25   ar
    43    24    43    1
    44    25    15    1
    45    25    20   ar
    46    26    27    1
    47    26     9   ar
@<TRIPOS>MOLECULE
*****
 43 47 0 0 0
SMALL
GASTEIGER

@<TRIPOS>ATOM
      1 N          -3.8974   -0.6603    1.4456 N.2     1  UNL11      -0.2917
      2 C          -3.6533    0.3493    0.6440 C.2     1  UNL11       0.2504
      3 C          -4.4134    1.6102    0.8040 C.3     1  UNL11       0.0478
      4 C          -3.7783    2.7053   -0.0128 C.3     1  UNL11      -0.0318
      5 C          -3.6202    2.3424   -1.4732 C.3     1  UNL11       0.0484
      6 C          -2.9277    1.0139   -1.5672 C.2     1  UNL11       0.3083
      7 O          -2.5915    0.5698   -2.6993 O.2     1  UNL11      -0.2471
      8 N          -2.6615    0.2716   -0.3694 N.am    1  UNL11      -0.1261
      9 C          -1.4808   -0.4848   -0.1950 C.ar    1  UNL11       0.1718
     10 C          -1.0425   -1.5268   -0.9722 C.ar    1  UNL11       0.0312
     11 C          -0.3681   -2.6250   -1.6029 C.ar    1  UNL11      -0.0418
     12 C           0.1897   -2.0249   -0.4420 C.ar    1  UNL11      -0.0068
     13 C           0.4534   -1.2326    0.6731 C.ar    1  UNL11       0.0057
     14 C           1.6473   -1.4818    1.5224 C.3     1  UNL11       0.0245
     15 C           2.0924   -0.2209    2.0999 C.2     1  UNL11       0.1193
     16 N           3.0143    0.5078    1.3916 N.2     1  UNL11      -0.0073
     17 N           3.4392    1.6724    1.8088 N.am    1  UNL11      -0.0356
     18 C           3.0086    2.2182    2.9343 C.2     1  UNL11       0.4383
     19 O           3.4549    3.3492    3.2918 O.2     1  UNL11      -0.2116
     20 C           2.0797    1.5753    3.7279 C.ar    1  UNL11       0.1004
     21 C           1.6330    2.1284    4.8972 C.ar    1  UNL11      -0.0441
     22 C           0.7144    1.4412    5.6574 C.ar    1  UNL11      -0.0608
     23 C           0.2605    0.2078    5.2251 C.ar    1  UNL11      -0.0611
     24 C           0.7238   -0.3295    4.0445 C.ar    1  UNL11      -0.0518
     25 C           1.6353    0.3202    3.2604 C.ar    1  UNL11       0.0192
     26 C          -0.5378   -0.3171    0.8245 C.ar    1  UNL11       0.1730
     27 F          -0.6239    0.6166    1.8349 F       1  UNL11      -0.2009
     28 H          -4.6345   -0.5078    2.1699 H       1  UNL11       0.3006
     29 H          -3.4328   -1.5798    1.3960 H       1  UNL11       0.3006
     30 H          -4.3576    1.9357    1.8742 H       1  UNL11       0.0386
     31 H          -5.4929    1.4783    0.5614 H       1  UNL11       0.0386
     32 H          -4.3435    3.6480    0.1209 H       1  UNL11       0.0276
     33 H          -2.7277    2.8333    0.3921 H       1  UNL11       0.0276
     34 H          -2.9563    3.1361   -1.9218 H       1  UNL11       0.0382
     35 H          -4.5459    2.3718   -2.0495 H       1  UNL11       0.0382
     36 H          -0.3421   -3.3439   -2.3853 H       1  UNL11       0.0631
     37 H           1.4410   -2.2712    2.2847 H       1  UNL11       0.0380
     38 H           2.4306   -1.9051    0.8594 H       1  UNL11       0.0380
     39 H           4.1541    2.1761    1.2125 H       1  UNL11       0.4829
     40 H           1.9875    3.0793    5.2148 H       1  UNL11       0.0627
     41 H           0.3568    1.8685    6.5758 H       1  UNL11       0.0618
     42 H          -0.4590   -0.3580    5.7993 H       1  UNL11       0.0618
     43 H           0.3912   -1.3072    3.6861 H       1  UNL11       0.0624
@<TRIPOS>BOND
     1     1     2    2
     2     1    28    1
     3     1    29    1
     4     2     3    1
     5     3     4    1
     6     3    30    1
     7     3    31    1
     8     4     5    1
     9     4    32    1
    10     4    33    1
    11     5     6    1
    12     5    34    1
    13     5    35    1
    14     6     7    2
    15     6     8   am
    16     8     9    1
    17     8     2    1
    18     9    10   ar
    19    10    11   ar
    20    11    12   ar
    21    11    36    1
    22    12    13   ar
    23    12    10    1
    24    13    14    1
    25    13    26   ar
    26    14    15    1
    27    14    37    1
    28    14    38    1
    29    15    16    2
    30    16    17    1
    31    17    18   am
    32    17    39    1
    33    18    19    2
    34    18    20    1
    35    20    21   ar
    36    21    22   ar
    37    21    40    1
    38    22    23   ar
    39    22    41    1
    40    23    24   ar
    41    23    42    1
    42    24    25   ar
    43    24    43    1
    44    25    15    1
    45    25    20   ar
    46    26    27    1
    47    26     9   ar
@<TRIPOS>MOLECULE
*****
 43 47 0 0 0
SMALL
GASTEIGER

@<TRIPOS>ATOM
      1 N          -4.1993   -1.3641    0.4369 N.2     1  UNL11      -0.2917
      2 C          -3.8852   -0.1047    0.2451 C.2     1  UNL11       0.2504
      3 C          -4.8154    0.9571    0.6930 C.3     1  UNL11       0.0478
      4 C          -4.1342    2.2997    0.6380 C.3     1  UNL11      -0.0318
      5 C          -3.5548    2.6174   -0.7232 C.3     1  UNL11       0.0484
      6 C          -2.6979    1.4658   -1.1626 C.2     1  UNL11       0.3083
      7 O          -2.0236    1.5658   -2.2243 O.2     1  UNL11      -0.2471
      8 N          -2.6615    0.2716   -0.3694 N.am    1  UNL11      -0.1261
      9 C          -1.4808   -0.4848   -0.1950 C.ar    1  UNL11       0.1718
     10 C          -1.0425   -1.5268   -0.9722 C.ar    1  UNL11       0.0312
     11 C          -0.3681   -2.6250   -1.6029 C.ar    1  UNL11      -0.0418
     12 C           0.1897   -2.0249   -0.4420 C.ar    1  UNL11      -0.0068
     13 C           0.4534   -1.2326    0.6731 C.ar    1  UNL11       0.0057
     14 C           1.6473   -1.4818    1.5224 C.3     1  UNL11       0.0245
     15 C           1.3476   -1.0884    2.8924 C.2     1  UNL11       0.1193
     16 N           1.6267    0.2055    3.2534 N.2     1  UNL11      -0.0073
     17 N           1.3509    0.6619    4.4479 N.am    1  UNL11      -0.0356
     18 C           0.7880   -0.0917    5.3781 C.2     1  UNL11       0.4383
     19 O           0.5436    0.4017    6.5195 O.2     1  UNL11      -0.2116
     20 C           0.4620   -1.4094    5.1262 C.ar    1  UNL11       0.1004
     21 C          -0.1142   -2.1991    6.0836 C.ar    1  UNL11      -0.0441
     22 C          -0.4097   -3.5097    5.7849 C.ar    1  UNL11      -0.0608
     23 C          -0.1200   -4.0019    4.5247 C.ar    1  UNL11      -0.0611
     24 C           0.4600   -3.1885    3.5764 C.ar    1  UNL11      -0.0518
     25 C           0.7688   -1.8821    3.8324 C.ar    1  UNL11       0.0192
     26 C          -0.5378   -0.3171    0.8245 C.ar    1  UNL11       0.1730
     27 F          -0.6239    0.6166    1.8349 F       1  UNL11      -0.2009
     28 H          -5.1132   -1.5459    0.9087 H       1  UNL11       0.3006
     29 H          -3.6243   -2.1679    0.1417 H       1  UNL11       0.3006
     30 H          -5.0834    0.7778    1.7656 H       1  UNL11       0.0386
     31 H          -5.7679    0.9461    0.1149 H       1  UNL11       0.0386
     32 H          -4.8304    3.0874    0.9859 H       1  UNL11       0.0276
     33 H          -3.2512    2.2358    1.3454 H       1  UNL11       0.0276
     34 H          -2.9038    3.5272   -0.5807 H       1  UNL11       0.0382
     35 H          -4.2936    2.8980   -1.4751 H       1  UNL11       0.0382
     36 H          -0.3421   -3.3439   -2.3853 H       1  UNL11       0.0631
     37 H           1.9934   -2.5394    1.4296 H       1  UNL11       0.0380
     38 H           2.4703   -0.8616    1.1098 H       1  UNL11       0.0380
     39 H           1.5981    1.6697    4.6570 H       1  UNL11       0.4829
     40 H          -0.3353   -1.8060    7.0467 H       1  UNL11       0.0627
     41 H          -0.8638   -4.1364    6.5298 H       1  UNL11       0.0618
     42 H          -0.3376   -5.0263    4.2588 H       1  UNL11       0.0618
     43 H           0.7105   -3.5552    2.5775 H       1  UNL11       0.0624
@<TRIPOS>BOND
     1     1     2    2
     2     1    28    1
     3     1    29    1
     4     2     3    1
     5     3     4    1
     6     3    30    1
     7     3    31    1
     8     4     5    1
     9     4    32    1
    10     4    33    1
    11     5     6    1
    12     5    34    1
    13     5    35    1
    14     6     7    2
    15     6     8   am
    16     8     9    1
    17     8     2    1
    18     9    10   ar
    19    10    11   ar
    20    11    12   ar
    21    11    36    1
    22    12    13   ar
    23    12    10    1
    24    13    14    1
    25    13    26   ar
    26    14    15    1
    27    14    37    1
    28    14    38    1
    29    15    16    2
    30    16    17    1
    31    17    18   am
    32    17    39    1
    33    18    19    2
    34    18    20    1
    35    20    21   ar
    36    21    22   ar
    37    21    40    1
    38    22    23   ar
    39    22    41    1
    40    23    24   ar
    41    23    42    1
    42    24    25   ar
    43    24    43    1
    44    25    15    1
    45    25    20   ar
    46    26    27    1
    47    26     9   ar
@<TRIPOS>MOLECULE
*****
 43 47 0 0 0
SMALL
GASTEIGER

@<TRIPOS>ATOM
      1 N          -4.1455   -1.5554   -0.7570 N.2     1  UNL11      -0.2917
      2 C          -3.9463   -0.3319   -0.3269 C.2     1  UNL11       0.2504
      3 C          -5.0792    0.4394    0.2340 C.3     1  UNL11       0.0478
      4 C          -4.5718    1.6815    0.9191 C.3     1  UNL11      -0.0318
      5 C          -3.7112    2.5453    0.0231 C.3     1  UNL11       0.0484
      6 C          -2.6400    1.6889   -0.5872 C.2     1  UNL11       0.3083
      7 O          -1.7375    2.2292   -1.2839 O.2     1  UNL11      -0.2471
      8 N          -2.6615    0.2716   -0.3694 N.am    1  UNL11      -0.1261
      9 C          -1.4808   -0.4848   -0.1950 C.ar    1  UNL11       0.1718
     10 C          -1.0425   -1.5268   -0.9722 C.ar    1  UNL11       0.0312
     11 C          -0.3681   -2.6250   -1.6029 C.ar    1  UNL11      -0.0418
     12 C           0.1897   -2.0249   -0.4420 C.ar    1  UNL11      -0.0068
     13 C           0.4534   -1.2326    0.6731 C.ar    1  UNL11       0.0057
     14 C           1.6473   -1.4818    1.5224 C.3     1  UNL11       0.0245
     15 C           1.2906   -2.4135    2.5836 C.2     1  UNL11       0.1193
     16 N           1.4566   -3.7519    2.3314 N.2     1  UNL11      -0.0073
     17 N           1.2053   -4.6600    3.2387 N.am    1  UNL11      -0.0356
     18 C           0.7779   -4.3464    4.4507 C.2     1  UNL11       0.4383
     19 O           0.5489   -5.2671    5.2909 O.2     1  UNL11      -0.2116
     20 C           0.5760   -3.0305    4.8165 C.ar    1  UNL11       0.1004
     21 C           0.1276   -2.6962    6.0653 C.ar    1  UNL11      -0.0441
     22 C          -0.0677   -1.3698    6.3762 C.ar    1  UNL11      -0.0608
     23 C           0.1936   -0.4022    5.4223 C.ar    1  UNL11      -0.0611
     24 C           0.6447   -0.7620    4.1716 C.ar    1  UNL11      -0.0518
     25 C           0.8518   -2.0671    3.8230 C.ar    1  UNL11       0.0192
     26 C          -0.5378   -0.3171    0.8245 C.ar    1  UNL11       0.1730
     27 F          -0.6239    0.6166    1.8349 F       1  UNL11      -0.2009
     28 H          -5.1202   -1.9216   -0.6739 H       1  UNL11       0.3006
     29 H          -3.4229   -2.1582   -1.1793 H       1  UNL11       0.3006
     30 H          -5.5848   -0.1765    1.0212 H       1  UNL11       0.0386
     31 H          -5.8476    0.6710   -0.5391 H       1  UNL11       0.0386
     32 H          -5.4220    2.2471    1.3471 H       1  UNL11       0.0276
     33 H          -3.8938    1.3273    1.7551 H       1  UNL11       0.0276
     34 H          -3.2306    3.3117    0.6966 H       1  UNL11       0.0382
     35 H          -4.2654    3.1152   -0.7239 H       1  UNL11       0.0382
     36 H          -0.3421   -3.3439   -2.3853 H       1  UNL11       0.0631
     37 H           2.5152   -1.8207    0.9069 H       1  UNL11       0.0380
     38 H           1.9486   -0.5021    1.9486 H       1  UNL11       0.0380
     39 H           1.3524   -5.6737    2.9719 H       1  UNL11       0.4829
     40 H          -0.0650   -3.4504    6.7898 H       1  UNL11       0.0627
     41 H          -0.4177   -1.0979    7.3546 H       1  UNL11       0.0618
     42 H           0.0490    0.6475    5.6337 H       1  UNL11       0.0618
     43 H           0.8470   -0.0189    3.3958 H       1  UNL11       0.0624
@<TRIPOS>BOND
     1     1     2    2
     2     1    28    1
     3     1    29    1
     4     2     3    1
     5     3     4    1
     6     3    30    1
     7     3    31    1
     8     4     5    1
     9     4    32    1
    10     4    33    1
    11     5     6    1
    12     5    34    1
    13     5    35    1
    14     6     7    2
    15     6     8   am
    16     8     9    1
    17     8     2    1
    18     9    10   ar
    19    10    11   ar
    20    11    12   ar
    21    11    36    1
    22    12    13   ar
    23    12    10    1
    24    13    14    1
    25    13    26   ar
    26    14    15    1
    27    14    37    1
    28    14    38    1
    29    15    16    2
    30    16    17    1
    31    17    18   am
    32    17    39    1
    33    18    19    2
    34    18    20    1
    35    20    21   ar
    36    21    22   ar
    37    21    40    1
    38    22    23   ar
    39    22    41    1
    40    23    24   ar
    41    23    42    1
    42    24    25   ar
    43    24    43    1
    44    25    15    1
    45    25    20   ar
    46    26    27    1
    47    26     9   ar
@<TRIPOS>MOLECULE
*****
 43 47 0 0 0
SMALL
GASTEIGER

@<TRIPOS>ATOM
      1 N          -4.1455   -1.5554   -0.7570 N.2     1  UNL11      -0.2917
      2 C          -3.9463   -0.3319   -0.3269 C.2     1  UNL11       0.2504
      3 C          -5.0792    0.4394    0.2340 C.3     1  UNL11       0.0478
      4 C          -4.5718    1.6815    0.9191 C.3     1  UNL11      -0.0318
      5 C          -3.7112    2.5453    0.0231 C.3     1  UNL11       0.0484
      6 C          -2.6400    1.6889   -0.5872 C.2     1  UNL11       0.3083
      7 O          -1.7375    2.2292   -1.2839 O.2     1  UNL11      -0.2471
      8 N          -2.6615    0.2716   -0.3694 N.am    1  UNL11      -0.1261
      9 C          -1.4808   -0.4848   -0.1950 C.ar    1  UNL11       0.1718
     10 C          -1.0425   -1.5268   -0.9722 C.ar    1  UNL11       0.0312
     11 C          -0.3681   -2.6250   -1.6029 C.ar    1  UNL11      -0.0418
     12 C           0.1897   -2.0249   -0.4420 C.ar    1  UNL11      -0.0068
     13 C           0.4534   -1.2326    0.6731 C.ar    1  UNL11       0.0057
     14 C           1.6473   -1.4818    1.5224 C.3     1  UNL11       0.0245
     15 C           2.4885   -0.2928    1.5220 C.2     1  UNL11       0.1193
     16 N           3.8406   -0.4755    1.6673 N.2     1  UNL11      -0.0073
     17 N           4.6786    0.5284    1.6345 N.am    1  UNL11      -0.0356
     18 C           4.2770    1.7766    1.4596 C.2     1  UNL11       0.4383
     19 O           5.1323    2.7115    1.4370 O.2     1  UNL11      -0.2116
     20 C           2.9393    2.0790    1.3014 C.ar    1  UNL11       0.1004
     21 C           2.5131    3.3676    1.1268 C.ar    1  UNL11      -0.0441
     22 C           1.1671    3.6165    0.9845 C.ar    1  UNL11      -0.0608
     23 C           0.2729    2.5613    1.0198 C.ar    1  UNL11      -0.0611
     24 C           0.7246    1.2721    1.1964 C.ar    1  UNL11      -0.0518
     25 C           2.0523    0.9822    1.3411 C.ar    1  UNL11       0.0192
     26 C          -0.5378   -0.3171    0.8245 C.ar    1  UNL11       0.1730
     27 F          -0.6239    0.6166    1.8349 F       1  UNL11      -0.2009
     28 H          -5.1202   -1.9216   -0.6739 H       1  UNL11       0.3006
     29 H          -3.4229   -2.1582   -1.1793 H       1  UNL11       0.3006
     30 H          -5.5848   -0.1765    1.0212 H       1  UNL11       0.0386
     31 H          -5.8476    0.6710   -0.5391 H       1  UNL11       0.0386
     32 H          -5.4220    2.2471    1.3471 H       1  UNL11       0.0276
     33 H          -3.8938    1.3273    1.7551 H       1  UNL11       0.0276
     34 H          -3.2306    3.3117    0.6966 H       1  UNL11       0.0382
     35 H          -4.2654    3.1152   -0.7239 H       1  UNL11       0.0382
     36 H          -0.3421   -3.3439   -2.3853 H       1  UNL11       0.0631
     37 H           1.3504   -1.8155    2.5458 H       1  UNL11       0.0380
     38 H           2.1872   -2.3416    1.0735 H       1  UNL11       0.0380
     39 H           5.7075    0.3125    1.7575 H       1  UNL11       0.4829
     40 H           3.2123    4.1683    1.0974 H       1  UNL11       0.0627
     41 H           0.8237    4.6247    0.8451 H       1  UNL11       0.0618
     42 H          -0.7901    2.7229    0.9130 H       1  UNL11       0.0618
     43 H           0.0390    0.4218    1.2404 H       1  UNL11       0.0624
@<TRIPOS>BOND
     1     1     2    2
     2     1    28    1
     3     1    29    1
     4     2     3    1
     5     3     4    1
     6     3    30    1
     7     3    31    1
     8     4     5    1
     9     4    32    1
    10     4    33    1
    11     5     6    1
    12     5    34    1
    13     5    35    1
    14     6     7    2
    15     6     8   am
    16     8     9    1
    17     8     2    1
    18     9    10   ar
    19    10    11   ar
    20    11    12   ar
    21    11    36    1
    22    12    13   ar
    23    12    10    1
    24    13    14    1
    25    13    26   ar
    26    14    15    1
    27    14    37    1
    28    14    38    1
    29    15    16    2
    30    16    17    1
    31    17    18   am
    32    17    39    1
    33    18    19    2
    34    18    20    1
    35    20    21   ar
    36    21    22   ar
    37    21    40    1
    38    22    23   ar
    39    22    41    1
    40    23    24   ar
    41    23    42    1
    42    24    25   ar
    43    24    43    1
    44    25    15    1
    45    25    20   ar
    46    26    27    1
    47    26     9   ar
@<TRIPOS>MOLECULE
*****
 43 47 0 0 0
SMALL
GASTEIGER

@<TRIPOS>ATOM
      1 N          -1.9329    1.5557   -2.2430 N.2     1  UNL11      -0.2917
      2 C          -2.9084    1.0037   -1.5610 C.2     1  UNL11       0.2504
      3 C          -4.3016    1.1271   -2.0474 C.3     1  UNL11       0.0478
      4 C          -5.2017    0.1901   -1.2848 C.3     1  UNL11      -0.0318
      5 C          -5.1258    0.3812    0.2143 C.3     1  UNL11       0.0484
      6 C          -3.6849    0.3393    0.6330 C.2     1  UNL11       0.3083
      7 O          -3.3960    0.3655    1.8608 O.2     1  UNL11      -0.2471
      8 N          -2.6615    0.2716   -0.3694 N.am    1  UNL11      -0.1261
      9 C          -1.4808   -0.4848   -0.1950 C.ar    1  UNL11       0.1718
     10 C          -1.0425   -1.5268   -0.9722 C.ar    1  UNL11       0.0312
     11 C          -0.3681   -2.6250   -1.6029 C.ar    1  UNL11      -0.0418
     12 C           0.1897   -2.0249   -0.4420 C.ar    1  UNL11      -0.0068
     13 C           0.4534   -1.2326    0.6731 C.ar    1  UNL11       0.0057
     14 C           1.6473   -1.4818    1.5224 C.3     1  UNL11       0.0245
     15 C           2.0924   -0.2209    2.0999 C.2     1  UNL11       0.1193
     16 N           1.1398    0.7390    2.3315 N.2     1  UNL11      -0.0073
     17 N           1.4378    1.8848    2.8877 N.am    1  UNL11      -0.0356
     18 C           2.6702    2.1883    3.2604 C.2     1  UNL11       0.4383
     19 O           2.9031    3.3140    3.7941 O.2     1  UNL11      -0.2116
     20 C           3.7095    1.2981    3.0772 C.ar    1  UNL11       0.1004
     21 C           4.9889    1.6051    3.4530 C.ar    1  UNL11      -0.0441
     22 C           5.9909    0.6865    3.2383 C.ar    1  UNL11      -0.0608
     23 C           5.6856   -0.5274    2.6488 C.ar    1  UNL11      -0.0611
     24 C           4.3905   -0.8152    2.2788 C.ar    1  UNL11      -0.0518
     25 C           3.3668    0.0688    2.4747 C.ar    1  UNL11       0.0192
     26 C          -0.5378   -0.3171    0.8245 C.ar    1  UNL11       0.1730
     27 F          -0.6239    0.6166    1.8349 F       1  UNL11      -0.2009
     28 H          -2.2072    2.0628   -3.1140 H       1  UNL11       0.3006
     29 H          -0.9381    1.5379   -1.9712 H       1  UNL11       0.3006
     30 H          -4.3425    0.8078   -3.1202 H       1  UNL11       0.0386
     31 H          -4.6635    2.1803   -2.0089 H       1  UNL11       0.0386
     32 H          -6.2392    0.2779   -1.6615 H       1  UNL11       0.0276
     33 H          -4.8134   -0.8553   -1.4857 H       1  UNL11       0.0276
     34 H          -5.6669   -0.4978    0.6688 H       1  UNL11       0.0382
     35 H          -5.6417    1.2684    0.5841 H       1  UNL11       0.0382
     36 H          -0.3421   -3.3439   -2.3853 H       1  UNL11       0.0631
     37 H           1.4410   -2.2712    2.2847 H       1  UNL11       0.0380
     38 H           2.4306   -1.9051    0.8594 H       1  UNL11       0.0380
     39 H           0.6519    2.5791    3.0319 H       1  UNL11       0.4829
     40 H           5.2080    2.5405    3.9090 H       1  UNL11       0.0627
     41 H           6.9978    0.9183    3.5318 H       1  UNL11       0.0618
     42 H           6.4492   -1.2695    2.4648 H       1  UNL11       0.0618
     43 H           4.1241   -1.7613    1.8003 H       1  UNL11       0.0624
@<TRIPOS>BOND
     1     1     2    2
     2     1    28    1
     3     1    29    1
     4     2     3    1
     5     3     4    1
     6     3    30    1
     7     3    31    1
     8     4     5    1
     9     4    32    1
    10     4    33    1
    11     5     6    1
    12     5    34    1
    13     5    35    1
    14     6     7    2
    15     6     8   am
    16     8     9    1
    17     8     2    1
    18     9    10   ar
    19    10    11   ar
    20    11    12   ar
    21    11    36    1
    22    12    13   ar
    23    12    10    1
    24    13    14    1
    25    13    26   ar
    26    14    15    1
    27    14    37    1
    28    14    38    1
    29    15    16    2
    30    16    17    1
    31    17    18   am
    32    17    39    1
    33    18    19    2
    34    18    20    1
    35    20    21   ar
    36    21    22   ar
    37    21    40    1
    38    22    23   ar
    39    22    41    1
    40    23    24   ar
    41    23    42    1
    42    24    25   ar
    43    24    43    1
    44    25    15    1
    45    25    20   ar
    46    26    27    1
    47    26     9   ar
@<TRIPOS>MOLECULE
*****
 43 47 0 0 0
SMALL
GASTEIGER

@<TRIPOS>ATOM
      1 N          -2.6828    1.3121    1.7771 N.2     1  UNL11      -0.2917
      2 C          -2.9980    1.3399    0.5038 C.2     1  UNL11       0.2504
      3 C          -3.7063    2.5173   -0.0485 C.3     1  UNL11       0.0478
      4 C          -3.7057    2.4632   -1.5541 C.3     1  UNL11      -0.0318
      5 C          -4.2759    1.1737   -2.1031 C.3     1  UNL11       0.0484
      6 C          -3.5839    0.0194   -1.4382 C.2     1  UNL11       0.3083
      7 O          -3.8254   -1.1556   -1.8291 O.2     1  UNL11      -0.2471
      8 N          -2.6615    0.2716   -0.3694 N.am    1  UNL11      -0.1261
      9 C          -1.4808   -0.4848   -0.1950 C.ar    1  UNL11       0.1718
     10 C          -1.0425   -1.5268   -0.9722 C.ar    1  UNL11       0.0312
     11 C          -0.3681   -2.6250   -1.6029 C.ar    1  UNL11      -0.0418
     12 C           0.1897   -2.0249   -0.4420 C.ar    1  UNL11      -0.0068
     13 C           0.4534   -1.2326    0.6731 C.ar    1  UNL11       0.0057
     14 C           1.6473   -1.4818    1.5224 C.3     1  UNL11       0.0245
     15 C           2.7064   -2.0505    0.7000 C.2     1  UNL11       0.1193
     16 N           2.7348   -1.6983   -0.6258 N.2     1  UNL11      -0.0073
     17 N           3.6736   -2.1235   -1.4313 N.am    1  UNL11      -0.0356
     18 C           4.6500   -2.9157   -1.0202 C.2     1  UNL11       0.4383
     19 O           5.5336   -3.2987   -1.8440 O.2     1  UNL11      -0.2116
     20 C           4.7228   -3.3335    0.2937 C.ar    1  UNL11       0.1004
     21 C           5.7249   -4.1583    0.7273 C.ar    1  UNL11      -0.0441
     22 C           5.7457   -4.5546    2.0451 C.ar    1  UNL11      -0.0608
     23 C           4.7559   -4.1115    2.9042 C.ar    1  UNL11      -0.0611
     24 C           3.7570   -3.2813    2.4457 C.ar    1  UNL11      -0.0518
     25 C           3.7001   -2.8645    1.1454 C.ar    1  UNL11       0.0192
     26 C          -0.5378   -0.3171    0.8245 C.ar    1  UNL11       0.1730
     27 F          -0.6239    0.6166    1.8349 F       1  UNL11      -0.2009
     28 H          -2.9583    2.1478    2.3398 H       1  UNL11       0.3006
     29 H          -2.2085    0.5285    2.2513 H       1  UNL11       0.3006
     30 H          -3.1489    3.4453    0.2387 H       1  UNL11       0.0386
     31 H          -4.7355    2.6159    0.3671 H       1  UNL11       0.0386
     32 H          -4.2254    3.3522   -1.9610 H       1  UNL11       0.0276
     33 H          -2.6179    2.4829   -1.8710 H       1  UNL11       0.0276
     34 H          -4.0287    1.1667   -3.2035 H       1  UNL11       0.0382
     35 H          -5.3625    1.0982   -2.0444 H       1  UNL11       0.0382
     36 H          -0.3421   -3.3439   -2.3853 H       1  UNL11       0.0631
     37 H           1.9552   -0.5558    2.0653 H       1  UNL11       0.0380
     38 H           1.3371   -2.1998    2.3101 H       1  UNL11       0.0380
     39 H           3.6293   -1.8141   -2.4426 H       1  UNL11       0.4829
     40 H           6.4816   -4.4876    0.0566 H       1  UNL11       0.0627
     41 H           6.5296   -5.2005    2.3947 H       1  UNL11       0.0618
     42 H           4.7424   -4.4055    3.9439 H       1  UNL11       0.0618
     43 H           2.9563   -2.9267    3.1000 H       1  UNL11       0.0624
@<TRIPOS>BOND
     1     1     2    2
     2     1    28    1
     3     1    29    1
     4     2     3    1
     5     3     4    1
     6     3    30    1
     7     3    31    1
     8     4     5    1
     9     4    32    1
    10     4    33    1
    11     5     6    1
    12     5    34    1
    13     5    35    1
    14     6     7    2
    15     6     8   am
    16     8     9    1
    17     8     2    1
    18     9    10   ar
    19    10    11   ar
    20    11    12   ar
    21    11    36    1
    22    12    13   ar
    23    12    10    1
    24    13    14    1
    25    13    26   ar
    26    14    15    1
    27    14    37    1
    28    14    38    1
    29    15    16    2
    30    16    17    1
    31    17    18   am
    32    17    39    1
    33    18    19    2
    34    18    20    1
    35    20    21   ar
    36    21    22   ar
    37    21    40    1
    38    22    23   ar
    39    22    41    1
    40    23    24   ar
    41    23    42    1
    42    24    25   ar
    43    24    43    1
    44    25    15    1
    45    25    20   ar
    46    26    27    1
    47    26     9   ar
@<TRIPOS>MOLECULE
*****
 43 47 0 0 0
SMALL
GASTEIGER

@<TRIPOS>ATOM
      1 N          -3.8974   -0.6603    1.4456 N.2     1  UNL11      -0.2917
      2 C          -3.6533    0.3493    0.6440 C.2     1  UNL11       0.2504
      3 C          -4.4134    1.6102    0.8040 C.3     1  UNL11       0.0478
      4 C          -3.7783    2.7053   -0.0128 C.3     1  UNL11      -0.0318
      5 C          -3.6202    2.3424   -1.4732 C.3     1  UNL11       0.0484
      6 C          -2.9277    1.0139   -1.5672 C.2     1  UNL11       0.3083
      7 O          -2.5915    0.5698   -2.6993 O.2     1  UNL11      -0.2471
      8 N          -2.6615    0.2716   -0.3694 N.am    1  UNL11      -0.1261
      9 C          -1.4808   -0.4848   -0.1950 C.ar    1  UNL11       0.1718
     10 C          -1.0425   -1.5268   -0.9722 C.ar    1  UNL11       0.0312
     11 C          -0.3681   -2.6250   -1.6029 C.ar    1  UNL11      -0.0418
     12 C           0.1897   -2.0249   -0.4420 C.ar    1  UNL11      -0.0068
     13 C           0.4534   -1.2326    0.6731 C.ar    1  UNL11       0.0057
     14 C           1.6473   -1.4818    1.5224 C.3     1  UNL11       0.0245
     15 C           2.8482   -1.3273    0.7128 C.2     1  UNL11       0.1193
     16 N           3.6766   -2.4150    0.5976 N.2     1  UNL11      -0.0073
     17 N           4.7539   -2.3847   -0.1437 N.am    1  UNL11      -0.0356
     18 C           5.1103   -1.3088   -0.8259 C.2     1  UNL11       0.4383
     19 O           6.1652   -1.3342   -1.5279 O.2     1  UNL11      -0.2116
     20 C           4.3515   -0.1561   -0.7857 C.ar    1  UNL11       0.1004
     21 C           4.7152    0.9641   -1.4822 C.ar    1  UNL11      -0.0441
     22 C           3.9295    2.0911   -1.3997 C.ar    1  UNL11      -0.0608
     23 C           2.7891    2.0691   -0.6166 C.ar    1  UNL11      -0.0611
     24 C           2.4422    0.9300    0.0757 C.ar    1  UNL11      -0.0518
     25 C           3.1945   -0.2096    0.0205 C.ar    1  UNL11       0.0192
     26 C          -0.5378   -0.3171    0.8245 C.ar    1  UNL11       0.1730
     27 F          -0.6239    0.6166    1.8349 F       1  UNL11      -0.2009
     28 H          -4.6345   -0.5078    2.1699 H       1  UNL11       0.3006
     29 H          -3.4328   -1.5798    1.3960 H       1  UNL11       0.3006
     30 H          -4.3576    1.9357    1.8742 H       1  UNL11       0.0386
     31 H          -5.4929    1.4783    0.5614 H       1  UNL11       0.0386
     32 H          -4.3435    3.6480    0.1209 H       1  UNL11       0.0276
     33 H          -2.7277    2.8333    0.3921 H       1  UNL11       0.0276
     34 H          -2.9563    3.1361   -1.9218 H       1  UNL11       0.0382
     35 H          -4.5459    2.3718   -2.0495 H       1  UNL11       0.0382
     36 H          -0.3421   -3.3439   -2.3853 H       1  UNL11       0.0631
     37 H           1.6375   -0.8325    2.4308 H       1  UNL11       0.0380
     38 H           1.5622   -2.5225    1.8991 H       1  UNL11       0.0380
     39 H           5.3477   -3.2601   -0.1819 H       1  UNL11       0.4829
     40 H           5.5922    0.9651   -2.0836 H       1  UNL11       0.0627
     41 H           4.2063    2.9745   -1.9445 H       1  UNL11       0.0618
     42 H           2.1519    2.9373   -0.5290 H       1  UNL11       0.0618
     43 H           1.5536    0.8895    0.7111 H       1  UNL11       0.0624
@<TRIPOS>BOND
     1     1     2    2
     2     1    28    1
     3     1    29    1
     4     2     3    1
     5     3     4    1
     6     3    30    1
     7     3    31    1
     8     4     5    1
     9     4    32    1
    10     4    33    1
    11     5     6    1
    12     5    34    1
    13     5    35    1
    14     6     7    2
    15     6     8   am
    16     8     9    1
    17     8     2    1
    18     9    10   ar
    19    10    11   ar
    20    11    12   ar
    21    11    36    1
    22    12    13   ar
    23    12    10    1
    24    13    14    1
    25    13    26   ar
    26    14    15    1
    27    14    37    1
    28    14    38    1
    29    15    16    2
    30    16    17    1
    31    17    18   am
    32    17    39    1
    33    18    19    2
    34    18    20    1
    35    20    21   ar
    36    21    22   ar
    37    21    40    1
    38    22    23   ar
    39    22    41    1
    40    23    24   ar
    41    23    42    1
    42    24    25   ar
    43    24    43    1
    44    25    15    1
    45    25    20   ar
    46    26    27    1
    47    26     9   ar
@<TRIPOS>MOLECULE
*****
 43 47 0 0 0
SMALL
GASTEIGER

@<TRIPOS>ATOM
      1 N          -4.1455   -1.5554   -0.7570 N.2     1  UNL11      -0.2917
      2 C          -3.9463   -0.3319   -0.3269 C.2     1  UNL11       0.2504
      3 C          -5.0792    0.4394    0.2340 C.3     1  UNL11       0.0478
      4 C          -4.5718    1.6815    0.9191 C.3     1  UNL11      -0.0318
      5 C          -3.7112    2.5453    0.0231 C.3     1  UNL11       0.0484
      6 C          -2.6400    1.6889   -0.5872 C.2     1  UNL11       0.3083
      7 O          -1.7375    2.2292   -1.2839 O.2     1  UNL11      -0.2471
      8 N          -2.6615    0.2716   -0.3694 N.am    1  UNL11      -0.1261
      9 C          -1.4808   -0.4848   -0.1950 C.ar    1  UNL11       0.1718
     10 C          -1.0425   -1.5268   -0.9722 C.ar    1  UNL11       0.0312
     11 C          -0.3681   -2.6250   -1.6029 C.ar    1  UNL11      -0.0418
     12 C           0.1897   -2.0249   -0.4420 C.ar    1  UNL11      -0.0068
     13 C           0.4534   -1.2326    0.6731 C.ar    1  UNL11       0.0057
     14 C           1.6473   -1.4818    1.5224 C.3     1  UNL11       0.0245
     15 C           2.7645   -0.6969    1.0154 C.2     1  UNL11       0.1193
     16 N           3.5751   -1.2845    0.0772 N.2     1  UNL11      -0.0073
     17 N           4.5757   -0.6419   -0.4678 N.am    1  UNL11      -0.0356
     18 C           4.8671    0.6088   -0.1506 C.2     1  UNL11       0.4383
     19 O           5.8490    1.1834   -0.7091 O.2     1  UNL11      -0.2116
     20 C           4.1186    1.3003    0.7810 C.ar    1  UNL11       0.1004
     21 C           4.4160    2.5920    1.1210 C.ar    1  UNL11      -0.0441
     22 C           3.6449    3.2330    2.0636 C.ar    1  UNL11      -0.0608
     23 C           2.5856    2.5608    2.6470 C.ar    1  UNL11      -0.0611
     24 C           2.3045    1.2608    2.2890 C.ar    1  UNL11      -0.0518
     25 C           3.0450    0.5887    1.3576 C.ar    1  UNL11       0.0192
     26 C          -0.5378   -0.3171    0.8245 C.ar    1  UNL11       0.1730
     27 F          -0.6239    0.6166    1.8349 F       1  UNL11      -0.2009
     28 H          -5.1202   -1.9216   -0.6739 H       1  UNL11       0.3006
     29 H          -3.4229   -2.1582   -1.1793 H       1  UNL11       0.3006
     30 H          -5.5848   -0.1765    1.0212 H       1  UNL11       0.0386
     31 H          -5.8476    0.6710   -0.5391 H       1  UNL11       0.0386
     32 H          -5.4220    2.2471    1.3471 H       1  UNL11       0.0276
     33 H          -3.8938    1.3273    1.7551 H       1  UNL11       0.0276
     34 H          -3.2306    3.3117    0.6966 H       1  UNL11       0.0382
     35 H          -4.2654    3.1152   -0.7239 H       1  UNL11       0.0382
     36 H          -0.3421   -3.3439   -2.3853 H       1  UNL11       0.0631
     37 H           1.4222   -1.2900    2.5992 H       1  UNL11       0.0380
     38 H           1.8700   -2.5671    1.4532 H       1  UNL11       0.0380
     39 H           5.1608   -1.1601   -1.1816 H       1  UNL11       0.4829
     40 H           5.2307    3.0976    0.6611 H       1  UNL11       0.0627
     41 H           3.8699    4.2476    2.3354 H       1  UNL11       0.0618
     42 H           1.9620    3.0348    3.3914 H       1  UNL11       0.0618
     43 H           1.4815    0.7028    2.7431 H       1  UNL11       0.0624
@<TRIPOS>BOND
     1     1     2    2
     2     1    28    1
     3     1    29    1
     4     2     3    1
     5     3     4    1
     6     3    30    1
     7     3    31    1
     8     4     5    1
     9     4    32    1
    10     4    33    1
    11     5     6    1
    12     5    34    1
    13     5    35    1
    14     6     7    2
    15     6     8   am
    16     8     9    1
    17     8     2    1
    18     9    10   ar
    19    10    11   ar
    20    11    12   ar
    21    11    36    1
    22    12    13   ar
    23    12    10    1
    24    13    14    1
    25    13    26   ar
    26    14    15    1
    27    14    37    1
    28    14    38    1
    29    15    16    2
    30    16    17    1
    31    17    18   am
    32    17    39    1
    33    18    19    2
    34    18    20    1
    35    20    21   ar
    36    21    22   ar
    37    21    40    1
    38    22    23   ar
    39    22    41    1
    40    23    24   ar
    41    23    42    1
    42    24    25   ar
    43    24    43    1
    44    25    15    1
    45    25    20   ar
    46    26    27    1
    47    26     9   ar
@<TRIPOS>MOLECULE
*****
 43 47 0 0 0
SMALL
GASTEIGER

@<TRIPOS>ATOM
      1 N          -1.9329    1.5557   -2.2430 N.2     1  UNL11      -0.2917
      2 C          -2.9084    1.0037   -1.5610 C.2     1  UNL11       0.2504
      3 C          -4.3016    1.1271   -2.0474 C.3     1  UNL11       0.0478
      4 C          -5.2017    0.1901   -1.2848 C.3     1  UNL11      -0.0318
      5 C          -5.1258    0.3812    0.2143 C.3     1  UNL11       0.0484
      6 C          -3.6849    0.3393    0.6330 C.2     1  UNL11       0.3083
      7 O          -3.3960    0.3655    1.8608 O.2     1  UNL11      -0.2471
      8 N          -2.6615    0.2716   -0.3694 N.am    1  UNL11      -0.1261
      9 C          -1.4808   -0.4848   -0.1950 C.ar    1  UNL11       0.1718
     10 C          -1.0425   -1.5268   -0.9722 C.ar    1  UNL11       0.0312
     11 C          -0.3681   -2.6250   -1.6029 C.ar    1  UNL11      -0.0418
     12 C           0.1897   -2.0249   -0.4420 C.ar    1  UNL11      -0.0068
     13 C           0.4534   -1.2326    0.6731 C.ar    1  UNL11       0.0057
     14 C           1.6473   -1.4818    1.5224 C.3     1  UNL11       0.0245
     15 C           1.3476   -1.0884    2.8924 C.2     1  UNL11       0.1193
     16 N           0.0435   -1.1877    3.3072 N.2     1  UNL11      -0.0073
     17 N          -0.3133   -0.8995    4.5323 N.am    1  UNL11      -0.0356
     18 C           0.5567   -0.4966    5.4437 C.2     1  UNL11       0.4383
     19 O           0.1560   -0.2296    6.6160 O.2     1  UNL11      -0.2116
     20 C           1.8964   -0.3612    5.1390 C.ar    1  UNL11       0.1004
     21 C           2.8031    0.0614    6.0727 C.ar    1  UNL11      -0.0441
     22 C           4.1257    0.1901    5.7147 C.ar    1  UNL11      -0.0608
     23 C           4.5122   -0.1106    4.4207 C.ar    1  UNL11      -0.0611
     24 C           3.5823   -0.5346    3.4974 C.ar    1  UNL11      -0.0518
     25 C           2.2599   -0.6759    3.8122 C.ar    1  UNL11       0.0192
     26 C          -0.5378   -0.3171    0.8245 C.ar    1  UNL11       0.1730
     27 F          -0.6239    0.6166    1.8349 F       1  UNL11      -0.2009
     28 H          -2.2072    2.0628   -3.1140 H       1  UNL11       0.3006
     29 H          -0.9381    1.5379   -1.9712 H       1  UNL11       0.3006
     30 H          -4.3425    0.8078   -3.1202 H       1  UNL11       0.0386
     31 H          -4.6635    2.1803   -2.0089 H       1  UNL11       0.0386
     32 H          -6.2392    0.2779   -1.6615 H       1  UNL11       0.0276
     33 H          -4.8134   -0.8553   -1.4857 H       1  UNL11       0.0276
     34 H          -5.6669   -0.4978    0.6688 H       1  UNL11       0.0382
     35 H          -5.6417    1.2684    0.5841 H       1  UNL11       0.0382
     36 H          -0.3421   -3.3439   -2.3853 H       1  UNL11       0.0631
     37 H           1.9934   -2.5394    1.4296 H       1  UNL11       0.0380
     38 H           2.4703   -0.8616    1.1098 H       1  UNL11       0.0380
     39 H          -1.3378   -0.9955    4.7801 H       1  UNL11       0.4829
     40 H           2.4923    0.2848    7.0648 H       1  UNL11       0.0627
     41 H           4.8447    0.5194    6.4416 H       1  UNL11       0.0618
     42 H           5.5421   -0.0183    4.1070 H       1  UNL11       0.0618
     43 H           3.8585   -0.7668    2.4655 H       1  UNL11       0.0624
@<TRIPOS>BOND
     1     1     2    2
     2     1    28    1
     3     1    29    1
     4     2     3    1
     5     3     4    1
     6     3    30    1
     7     3    31    1
     8     4     5    1
     9     4    32    1
    10     4    33    1
    11     5     6    1
    12     5    34    1
    13     5    35    1
    14     6     7    2
    15     6     8   am
    16     8     9    1
    17     8     2    1
    18     9    10   ar
    19    10    11   ar
    20    11    12   ar
    21    11    36    1
    22    12    13   ar
    23    12    10    1
    24    13    14    1
    25    13    26   ar
    26    14    15    1
    27    14    37    1
    28    14    38    1
    29    15    16    2
    30    16    17    1
    31    17    18   am
    32    17    39    1
    33    18    19    2
    34    18    20    1
    35    20    21   ar
    36    21    22   ar
    37    21    40    1
    38    22    23   ar
    39    22    41    1
    40    23    24   ar
    41    23    42    1
    42    24    25   ar
    43    24    43    1
    44    25    15    1
    45    25    20   ar
    46    26    27    1
    47    26     9   ar
@<TRIPOS>MOLECULE
*****
 43 47 0 0 0
SMALL
GASTEIGER

@<TRIPOS>ATOM
      1 N          -4.1455   -1.5554   -0.7570 N.2     1  UNL11      -0.2917
      2 C          -3.9463   -0.3319   -0.3269 C.2     1  UNL11       0.2504
      3 C          -5.0792    0.4394    0.2340 C.3     1  UNL11       0.0478
      4 C          -4.5718    1.6815    0.9191 C.3     1  UNL11      -0.0318
      5 C          -3.7112    2.5453    0.0231 C.3     1  UNL11       0.0484
      6 C          -2.6400    1.6889   -0.5872 C.2     1  UNL11       0.3083
      7 O          -1.7375    2.2292   -1.2839 O.2     1  UNL11      -0.2471
      8 N          -2.6615    0.2716   -0.3694 N.am    1  UNL11      -0.1261
      9 C          -1.4808   -0.4848   -0.1950 C.ar    1  UNL11       0.1718
     10 C          -1.0425   -1.5268   -0.9722 C.ar    1  UNL11       0.0312
     11 C          -0.3681   -2.6250   -1.6029 C.ar    1  UNL11      -0.0418
     12 C           0.1897   -2.0249   -0.4420 C.ar    1  UNL11      -0.0068
     13 C           0.4534   -1.2326    0.6731 C.ar    1  UNL11       0.0057
     14 C           1.6473   -1.4818    1.5224 C.3     1  UNL11       0.0245
     15 C           1.9773   -2.8997    1.4757 C.2     1  UNL11       0.1193
     16 N           2.8500   -3.3134    0.5013 N.2     1  UNL11      -0.0073
     17 N           3.2394   -4.5588    0.4091 N.am    1  UNL11      -0.0356
     18 C           2.8184   -5.4929    1.2458 C.2     1  UNL11       0.4383
     19 O           3.2272   -6.6848    1.1100 O.2     1  UNL11      -0.2116
     20 C           1.9390   -5.1911    2.2665 C.ar    1  UNL11       0.1004
     21 C           1.4924   -6.1513    3.1330 C.ar    1  UNL11      -0.0441
     22 C           0.6076   -5.8001    4.1269 C.ar    1  UNL11      -0.0608
     23 C           0.1887   -4.4856    4.2311 C.ar    1  UNL11      -0.0611
     24 C           0.6517   -3.5356    3.3479 C.ar    1  UNL11      -0.0518
     25 C           1.5308   -3.8426    2.3475 C.ar    1  UNL11       0.0192
     26 C          -0.5378   -0.3171    0.8245 C.ar    1  UNL11       0.1730
     27 F          -0.6239    0.6166    1.8349 F       1  UNL11      -0.2009
     28 H          -5.1202   -1.9216   -0.6739 H       1  UNL11       0.3006
     29 H          -3.4229   -2.1582   -1.1793 H       1  UNL11       0.3006
     30 H          -5.5848   -0.1765    1.0212 H       1  UNL11       0.0386
     31 H          -5.8476    0.6710   -0.5391 H       1  UNL11       0.0386
     32 H          -5.4220    2.2471    1.3471 H       1  UNL11       0.0276
     33 H          -3.8938    1.3273    1.7551 H       1  UNL11       0.0276
     34 H          -3.2306    3.3117    0.6966 H       1  UNL11       0.0382
     35 H          -4.2654    3.1152   -0.7239 H       1  UNL11       0.0382
     36 H          -0.3421   -3.3439   -2.3853 H       1  UNL11       0.0631
     37 H           2.4959   -0.8183    1.2282 H       1  UNL11       0.0380
     38 H           1.3760   -1.1784    2.5551 H       1  UNL11       0.0380
     39 H           3.9112   -4.8062   -0.3706 H       1  UNL11       0.4829
     40 H           1.8263   -7.1569    3.0435 H       1  UNL11       0.0627
     41 H           0.2531   -6.5470    4.8128 H       1  UNL11       0.0618
     42 H          -0.5065   -4.1775    4.9988 H       1  UNL11       0.0618
     43 H           0.3275   -2.4929    3.4001 H       1  UNL11       0.0624
@<TRIPOS>BOND
     1     1     2    2
     2     1    28    1
     3     1    29    1
     4     2     3    1
     5     3     4    1
     6     3    30    1
     7     3    31    1
     8     4     5    1
     9     4    32    1
    10     4    33    1
    11     5     6    1
    12     5    34    1
    13     5    35    1
    14     6     7    2
    15     6     8   am
    16     8     9    1
    17     8     2    1
    18     9    10   ar
    19    10    11   ar
    20    11    12   ar
    21    11    36    1
    22    12    13   ar
    23    12    10    1
    24    13    14    1
    25    13    26   ar
    26    14    15    1
    27    14    37    1
    28    14    38    1
    29    15    16    2
    30    16    17    1
    31    17    18   am
    32    17    39    1
    33    18    19    2
    34    18    20    1
    35    20    21   ar
    36    21    22   ar
    37    21    40    1
    38    22    23   ar
    39    22    41    1
    40    23    24   ar
    41    23    42    1
    42    24    25   ar
    43    24    43    1
    44    25    15    1
    45    25    20   ar
    46    26    27    1
    47    26     9   ar
@<TRIPOS>MOLECULE
*****
 43 47 0 0 0
SMALL
GASTEIGER

@<TRIPOS>ATOM
      1 N          -2.2649    1.8679    1.3582 N.2     1  UNL11      -0.2917
      2 C          -2.8122    1.5612    0.2060 C.2     1  UNL11       0.2504
      3 C          -3.5931    2.5834   -0.5277 C.3     1  UNL11       0.0478
      4 C          -3.8750    2.1121   -1.9305 C.3     1  UNL11      -0.0318
      5 C          -4.5576    0.7626   -1.9785 C.3     1  UNL11       0.0484
      6 C          -3.7713   -0.2050   -1.1426 C.2     1  UNL11       0.3083
      7 O          -4.0998   -1.4231   -1.1319 O.2     1  UNL11      -0.2471
      8 N          -2.6615    0.2716   -0.3694 N.am    1  UNL11      -0.1261
      9 C          -1.4808   -0.4848   -0.1950 C.ar    1  UNL11       0.1718
     10 C          -1.0425   -1.5268   -0.9722 C.ar    1  UNL11       0.0312
     11 C          -0.3681   -2.6250   -1.6029 C.ar    1  UNL11      -0.0418
     12 C           0.1897   -2.0249   -0.4420 C.ar    1  UNL11      -0.0068
     13 C           0.4534   -1.2326    0.6731 C.ar    1  UNL11       0.0057
     14 C           1.6473   -1.4818    1.5224 C.3     1  UNL11       0.0245
     15 C           2.3888   -2.6127    0.9814 C.2     1  UNL11       0.1193
     16 N           3.6855   -2.3899    0.5924 N.2     1  UNL11      -0.0073
     17 N           4.4431   -3.3540    0.1367 N.am    1  UNL11      -0.0356
     18 C           4.0087   -4.5984    0.0232 C.2     1  UNL11       0.4383
     19 O           4.7854   -5.4936   -0.4257 O.2     1  UNL11      -0.2116
     20 C           2.7208   -4.9391    0.3857 C.ar    1  UNL11       0.1004
     21 C           2.2598   -6.2219    0.2658 C.ar    1  UNL11      -0.0441
     22 C           0.9639   -6.5069    0.6311 C.ar    1  UNL11      -0.0608
     23 C           0.1545   -5.4932    1.1125 C.ar    1  UNL11      -0.0611
     24 C           0.6400   -4.2092    1.2249 C.ar    1  UNL11      -0.0518
     25 C           1.9202   -3.8844    0.8736 C.ar    1  UNL11       0.0192
     26 C          -0.5378   -0.3171    0.8245 C.ar    1  UNL11       0.1730
     27 F          -0.6239    0.6166    1.8349 F       1  UNL11      -0.2009
     28 H          -2.4173    2.8441    1.6971 H       1  UNL11       0.3006
     29 H          -1.7223    1.2172    1.9464 H       1  UNL11       0.3006
     30 H          -2.9777    3.5146   -0.6204 H       1  UNL11       0.0386
     31 H          -4.5247    2.8638    0.0157 H       1  UNL11       0.0386
     32 H          -4.4480    2.8857   -2.4775 H       1  UNL11       0.0276
     33 H          -2.8656    1.9685   -2.4250 H       1  UNL11       0.0276
     34 H          -4.5208    0.4324   -3.0563 H       1  UNL11       0.0382
     35 H          -5.6152    0.7806   -1.7115 H       1  UNL11       0.0382
     36 H          -0.3421   -3.3439   -2.3853 H       1  UNL11       0.0631
     37 H           2.2640   -0.5572    1.6308 H       1  UNL11       0.0380
     38 H           1.2739   -1.7122    2.5421 H       1  UNL11       0.0380
     39 H           5.4322   -3.1075   -0.1484 H       1  UNL11       0.4829
     40 H           2.8947   -6.9917   -0.1018 H       1  UNL11       0.0627
     41 H           0.5941   -7.5114    0.5421 H       1  UNL11       0.0618
     42 H          -0.8678   -5.6832    1.4061 H       1  UNL11       0.0618
     43 H           0.0184   -3.3876    1.5904 H       1  UNL11       0.0624
@<TRIPOS>BOND
     1     1     2    2
     2     1    28    1
     3     1    29    1
     4     2     3    1
     5     3     4    1
     6     3    30    1
     7     3    31    1
     8     4     5    1
     9     4    32    1
    10     4    33    1
    11     5     6    1
    12     5    34    1
    13     5    35    1
    14     6     7    2
    15     6     8   am
    16     8     9    1
    17     8     2    1
    18     9    10   ar
    19    10    11   ar
    20    11    12   ar
    21    11    36    1
    22    12    13   ar
    23    12    10    1
    24    13    14    1
    25    13    26   ar
    26    14    15    1
    27    14    37    1
    28    14    38    1
    29    15    16    2
    30    16    17    1
    31    17    18   am
    32    17    39    1
    33    18    19    2
    34    18    20    1
    35    20    21   ar
    36    21    22   ar
    37    21    40    1
    38    22    23   ar
    39    22    41    1
    40    23    24   ar
    41    23    42    1
    42    24    25   ar
    43    24    43    1
    44    25    15    1
    45    25    20   ar
    46    26    27    1
    47    26     9   ar
@<TRIPOS>MOLECULE
*****
 43 47 0 0 0
SMALL
GASTEIGER

@<TRIPOS>ATOM
      1 N          -1.9329    1.5557   -2.2430 N.2     1  UNL11      -0.2917
      2 C          -2.9084    1.0037   -1.5610 C.2     1  UNL11       0.2504
      3 C          -4.3016    1.1271   -2.0474 C.3     1  UNL11       0.0478
      4 C          -5.2017    0.1901   -1.2848 C.3     1  UNL11      -0.0318
      5 C          -5.1258    0.3812    0.2143 C.3     1  UNL11       0.0484
      6 C          -3.6849    0.3393    0.6330 C.2     1  UNL11       0.3083
      7 O          -3.3960    0.3655    1.8608 O.2     1  UNL11      -0.2471
      8 N          -2.6615    0.2716   -0.3694 N.am    1  UNL11      -0.1261
      9 C          -1.4808   -0.4848   -0.1950 C.ar    1  UNL11       0.1718
     10 C          -1.0425   -1.5268   -0.9722 C.ar    1  UNL11       0.0312
     11 C          -0.3681   -2.6250   -1.6029 C.ar    1  UNL11      -0.0418
     12 C           0.1897   -2.0249   -0.4420 C.ar    1  UNL11      -0.0068
     13 C           0.4534   -1.2326    0.6731 C.ar    1  UNL11       0.0057
     14 C           1.6473   -1.4818    1.5224 C.3     1  UNL11       0.0245
     15 C           2.3888   -2.6127    0.9814 C.2     1  UNL11       0.1193
     16 N           3.3676   -2.3430    0.0585 N.2     1  UNL11      -0.0073
     17 N           4.1149   -3.2890   -0.4492 N.am    1  UNL11      -0.0356
     18 C           3.9749   -4.5588   -0.1058 C.2     1  UNL11       0.4383
     19 O           4.7257   -5.4350   -0.6299 O.2     1  UNL11      -0.2116
     20 C           3.0224   -4.9468    0.8152 C.ar    1  UNL11       0.1004
     21 C           2.8651   -6.2585    1.1719 C.ar    1  UNL11      -0.0441
     22 C           1.8932   -6.5939    2.0868 C.ar    1  UNL11      -0.0608
     23 C           1.0966   -5.6004    2.6278 C.ar    1  UNL11      -0.0611
     24 C           1.2730   -4.2865    2.2542 C.ar    1  UNL11      -0.0518
     25 C           2.2263   -3.9114    1.3496 C.ar    1  UNL11       0.0192
     26 C          -0.5378   -0.3171    0.8245 C.ar    1  UNL11       0.1730
     27 F          -0.6239    0.6166    1.8349 F       1  UNL11      -0.2009
     28 H          -2.2072    2.0628   -3.1140 H       1  UNL11       0.3006
     29 H          -0.9381    1.5379   -1.9712 H       1  UNL11       0.3006
     30 H          -4.3425    0.8078   -3.1202 H       1  UNL11       0.0386
     31 H          -4.6635    2.1803   -2.0089 H       1  UNL11       0.0386
     32 H          -6.2392    0.2779   -1.6615 H       1  UNL11       0.0276
     33 H          -4.8134   -0.8553   -1.4857 H       1  UNL11       0.0276
     34 H          -5.6669   -0.4978    0.6688 H       1  UNL11       0.0382
     35 H          -5.6417    1.2684    0.5841 H       1  UNL11       0.0382
     36 H          -0.3421   -3.3439   -2.3853 H       1  UNL11       0.0631
     37 H           2.2640   -0.5572    1.6308 H       1  UNL11       0.0380
     38 H           1.2739   -1.7122    2.5421 H       1  UNL11       0.0380
     39 H           4.8476   -3.0073   -1.1592 H       1  UNL11       0.4829
     40 H           3.4876   -7.0110    0.7511 H       1  UNL11       0.0627
     41 H           1.7638   -7.6208    2.3741 H       1  UNL11       0.0618
     42 H           0.3236   -5.8304    3.3469 H       1  UNL11       0.0618
     43 H           0.6496   -3.4838    2.6567 H       1  UNL11       0.0624
@<TRIPOS>BOND
     1     1     2    2
     2     1    28    1
     3     1    29    1
     4     2     3    1
     5     3     4    1
     6     3    30    1
     7     3    31    1
     8     4     5    1
     9     4    32    1
    10     4    33    1
    11     5     6    1
    12     5    34    1
    13     5    35    1
    14     6     7    2
    15     6     8   am
    16     8     9    1
    17     8     2    1
    18     9    10   ar
    19    10    11   ar
    20    11    12   ar
    21    11    36    1
    22    12    13   ar
    23    12    10    1
    24    13    14    1
    25    13    26   ar
    26    14    15    1
    27    14    37    1
    28    14    38    1
    29    15    16    2
    30    16    17    1
    31    17    18   am
    32    17    39    1
    33    18    19    2
    34    18    20    1
    35    20    21   ar
    36    21    22   ar
    37    21    40    1
    38    22    23   ar
    39    22    41    1
    40    23    24   ar
    41    23    42    1
    42    24    25   ar
    43    24    43    1
    44    25    15    1
    45    25    20   ar
    46    26    27    1
    47    26     9   ar
@<TRIPOS>MOLECULE
*****
 43 47 0 0 0
SMALL
GASTEIGER

@<TRIPOS>ATOM
      1 N          -1.6445    2.2282   -1.2791 N.2     1  UNL11      -0.2917
      2 C          -2.6867    1.4375   -1.1798 C.2     1  UNL11       0.2504
      3 C          -3.9175    1.7512   -1.9413 C.3     1  UNL11       0.0478
      4 C          -4.8616    0.5776   -1.9066 C.3     1  UNL11      -0.0318
      5 C          -5.1883    0.1185   -0.5024 C.3     1  UNL11       0.0484
      6 C          -3.9044   -0.0926    0.2463 C.2     1  UNL11       0.3083
      7 O          -3.9386   -0.5862    1.4069 O.2     1  UNL11      -0.2471
      8 N          -2.6615    0.2716   -0.3694 N.am    1  UNL11      -0.1261
      9 C          -1.4808   -0.4848   -0.1950 C.ar    1  UNL11       0.1718
     10 C          -1.0425   -1.5268   -0.9722 C.ar    1  UNL11       0.0312
     11 C          -0.3681   -2.6250   -1.6029 C.ar    1  UNL11      -0.0418
     12 C           0.1897   -2.0249   -0.4420 C.ar    1  UNL11      -0.0068
     13 C           0.4534   -1.2326    0.6731 C.ar    1  UNL11       0.0057
     14 C           1.6473   -1.4818    1.5224 C.3     1  UNL11       0.0245
     15 C           2.3888   -2.6127    0.9814 C.2     1  UNL11       0.1193
     16 N           2.5561   -3.7054    1.7942 N.2     1  UNL11      -0.0073
     17 N           3.1691   -4.7842    1.3801 N.am    1  UNL11      -0.0356
     18 C           3.6634   -4.8890    0.1576 C.2     1  UNL11       0.4383
     19 O           4.2491   -5.9576   -0.1909 O.2     1  UNL11      -0.2116
     20 C           3.5525   -3.8519   -0.7470 C.ar    1  UNL11       0.1004
     21 C           4.0664   -3.9479   -2.0115 C.ar    1  UNL11      -0.0441
     22 C           3.9386   -2.8809   -2.8713 C.ar    1  UNL11      -0.0608
     23 C           3.2934   -1.7349   -2.4417 C.ar    1  UNL11      -0.0611
     24 C           2.7836   -1.6607   -1.1643 C.ar    1  UNL11      -0.0518
     25 C           2.8890   -2.6973   -0.2800 C.ar    1  UNL11       0.0192
     26 C          -0.5378   -0.3171    0.8245 C.ar    1  UNL11       0.1730
     27 F          -0.6239    0.6166    1.8349 F       1  UNL11      -0.2009
     28 H          -1.7497    3.0548   -1.9089 H       1  UNL11       0.3006
     29 H          -0.7551    2.0999   -0.7726 H       1  UNL11       0.3006
     30 H          -3.6489    1.9143   -3.0163 H       1  UNL11       0.0386
     31 H          -4.4007    2.6889   -1.5823 H       1  UNL11       0.0386
     32 H          -5.7739    0.8136   -2.4880 H       1  UNL11       0.0276
     33 H          -4.3130   -0.2844   -2.3967 H       1  UNL11       0.0276
     34 H          -5.7171   -0.8715   -0.6128 H       1  UNL11       0.0382
     35 H          -5.8828    0.7656    0.0352 H       1  UNL11       0.0382
     36 H          -0.3421   -3.3439   -2.3853 H       1  UNL11       0.0631
     37 H           2.2640   -0.5572    1.6308 H       1  UNL11       0.0380
     38 H           1.2739   -1.7122    2.5421 H       1  UNL11       0.0380
     39 H           3.2647   -5.5868    2.0636 H       1  UNL11       0.4829
     40 H           4.5561   -4.8367   -2.3295 H       1  UNL11       0.0627
     41 H           4.3374   -2.9480   -3.8665 H       1  UNL11       0.0618
     42 H           3.1780   -0.8791   -3.0912 H       1  UNL11       0.0618
     43 H           2.2804   -0.7630   -0.7955 H       1  UNL11       0.0624
@<TRIPOS>BOND
     1     1     2    2
     2     1    28    1
     3     1    29    1
     4     2     3    1
     5     3     4    1
     6     3    30    1
     7     3    31    1
     8     4     5    1
     9     4    32    1
    10     4    33    1
    11     5     6    1
    12     5    34    1
    13     5    35    1
    14     6     7    2
    15     6     8   am
    16     8     9    1
    17     8     2    1
    18     9    10   ar
    19    10    11   ar
    20    11    12   ar
    21    11    36    1
    22    12    13   ar
    23    12    10    1
    24    13    14    1
    25    13    26   ar
    26    14    15    1
    27    14    37    1
    28    14    38    1
    29    15    16    2
    30    16    17    1
    31    17    18   am
    32    17    39    1
    33    18    19    2
    34    18    20    1
    35    20    21   ar
    36    21    22   ar
    37    21    40    1
    38    22    23   ar
    39    22    41    1
    40    23    24   ar
    41    23    42    1
    42    24    25   ar
    43    24    43    1
    44    25    15    1
    45    25    20   ar
    46    26    27    1
    47    26     9   ar
@<TRIPOS>MOLECULE
*****
 43 47 0 0 0
SMALL
GASTEIGER

@<TRIPOS>ATOM
      1 N          -1.9329    1.5557   -2.2430 N.2     1  UNL11      -0.2917
      2 C          -2.9084    1.0037   -1.5610 C.2     1  UNL11       0.2504
      3 C          -4.3016    1.1271   -2.0474 C.3     1  UNL11       0.0478
      4 C          -5.2017    0.1901   -1.2848 C.3     1  UNL11      -0.0318
      5 C          -5.1258    0.3812    0.2143 C.3     1  UNL11       0.0484
      6 C          -3.6849    0.3393    0.6330 C.2     1  UNL11       0.3083
      7 O          -3.3960    0.3655    1.8608 O.2     1  UNL11      -0.2471
      8 N          -2.6615    0.2716   -0.3694 N.am    1  UNL11      -0.1261
      9 C          -1.4808   -0.4848   -0.1950 C.ar    1  UNL11       0.1718
     10 C          -1.0425   -1.5268   -0.9722 C.ar    1  UNL11       0.0312
     11 C          -0.3681   -2.6250   -1.6029 C.ar    1  UNL11      -0.0418
     12 C           0.1897   -2.0249   -0.4420 C.ar    1  UNL11      -0.0068
     13 C           0.4534   -1.2326    0.6731 C.ar    1  UNL11       0.0057
     14 C           1.6473   -1.4818    1.5224 C.3     1  UNL11       0.0245
     15 C           1.9773   -2.8997    1.4757 C.2     1  UNL11       0.1193
     16 N           1.4023   -3.7134    2.4190 N.2     1  UNL11      -0.0073
     17 N           1.6042   -5.0058    2.4288 N.am    1  UNL11      -0.0356
     18 C           2.3714   -5.6064    1.5340 C.2     1  UNL11       0.4383
     19 O           2.5335   -6.8620    1.5909 O.2     1  UNL11      -0.2116
     20 C           3.0004   -4.8872    0.5374 C.ar    1  UNL11       0.1004
     21 C           3.8014   -5.4981   -0.3887 C.ar    1  UNL11      -0.0441
     22 C           4.4142   -4.7338   -1.3554 C.ar    1  UNL11      -0.0608
     23 C           4.2080   -3.3658   -1.3726 C.ar    1  UNL11      -0.0611
     24 C           3.3973   -2.7723   -0.4305 C.ar    1  UNL11      -0.0518
     25 C           2.7703   -3.4949    0.5455 C.ar    1  UNL11       0.0192
     26 C          -0.5378   -0.3171    0.8245 C.ar    1  UNL11       0.1730
     27 F          -0.6239    0.6166    1.8349 F       1  UNL11      -0.2009
     28 H          -2.2072    2.0628   -3.1140 H       1  UNL11       0.3006
     29 H          -0.9381    1.5379   -1.9712 H       1  UNL11       0.3006
     30 H          -4.3425    0.8078   -3.1202 H       1  UNL11       0.0386
     31 H          -4.6635    2.1803   -2.0089 H       1  UNL11       0.0386
     32 H          -6.2392    0.2779   -1.6615 H       1  UNL11       0.0276
     33 H          -4.8134   -0.8553   -1.4857 H       1  UNL11       0.0276
     34 H          -5.6669   -0.4978    0.6688 H       1  UNL11       0.0382
     35 H          -5.6417    1.2684    0.5841 H       1  UNL11       0.0382
     36 H          -0.3421   -3.3439   -2.3853 H       1  UNL11       0.0631
     37 H           2.4959   -0.8183    1.2282 H       1  UNL11       0.0380
     38 H           1.3760   -1.1784    2.5551 H       1  UNL11       0.0380
     39 H           1.1311   -5.5703    3.1890 H       1  UNL11       0.4829
     40 H           3.9472   -6.5512   -0.3658 H       1  UNL11       0.0627
     41 H           5.0431   -5.2051   -2.0875 H       1  UNL11       0.0618
     42 H           4.6756   -2.7373   -2.1169 H       1  UNL11       0.0618
     43 H           3.2273   -1.6926   -0.4139 H       1  UNL11       0.0624
@<TRIPOS>BOND
     1     1     2    2
     2     1    28    1
     3     1    29    1
     4     2     3    1
     5     3     4    1
     6     3    30    1
     7     3    31    1
     8     4     5    1
     9     4    32    1
    10     4    33    1
    11     5     6    1
    12     5    34    1
    13     5    35    1
    14     6     7    2
    15     6     8   am
    16     8     9    1
    17     8     2    1
    18     9    10   ar
    19    10    11   ar
    20    11    12   ar
    21    11    36    1
    22    12    13   ar
    23    12    10    1
    24    13    14    1
    25    13    26   ar
    26    14    15    1
    27    14    37    1
    28    14    38    1
    29    15    16    2
    30    16    17    1
    31    17    18   am
    32    17    39    1
    33    18    19    2
    34    18    20    1
    35    20    21   ar
    36    21    22   ar
    37    21    40    1
    38    22    23   ar
    39    22    41    1
    40    23    24   ar
    41    23    42    1
    42    24    25   ar
    43    24    43    1
    44    25    15    1
    45    25    20   ar
    46    26    27    1
    47    26     9   ar
@<TRIPOS>MOLECULE
*****
 43 47 0 0 0
SMALL
GASTEIGER

@<TRIPOS>ATOM
      1 N          -2.2649    1.8679    1.3582 N.2     1  UNL11      -0.2917
      2 C          -2.8122    1.5612    0.2060 C.2     1  UNL11       0.2504
      3 C          -3.5931    2.5834   -0.5277 C.3     1  UNL11       0.0478
      4 C          -3.8750    2.1121   -1.9305 C.3     1  UNL11      -0.0318
      5 C          -4.5576    0.7626   -1.9785 C.3     1  UNL11       0.0484
      6 C          -3.7713   -0.2050   -1.1426 C.2     1  UNL11       0.3083
      7 O          -4.0998   -1.4231   -1.1319 O.2     1  UNL11      -0.2471
      8 N          -2.6615    0.2716   -0.3694 N.am    1  UNL11      -0.1261
      9 C          -1.4808   -0.4848   -0.1950 C.ar    1  UNL11       0.1718
     10 C          -1.0425   -1.5268   -0.9722 C.ar    1  UNL11       0.0312
     11 C          -0.3681   -2.6250   -1.6029 C.ar    1  UNL11      -0.0418
     12 C           0.1897   -2.0249   -0.4420 C.ar    1  UNL11      -0.0068
     13 C           0.4534   -1.2326    0.6731 C.ar    1  UNL11       0.0057
     14 C           1.6473   -1.4818    1.5224 C.3     1  UNL11       0.0245
     15 C           2.0924   -0.2209    2.0999 C.2     1  UNL11       0.1193
     16 N           1.8553    0.9224    1.3795 N.2     1  UNL11      -0.0073
     17 N           2.1790    2.1043    1.8371 N.am    1  UNL11      -0.0356
     18 C           2.7521    2.2706    3.0178 C.2     1  UNL11       0.4383
     19 O           3.0455    3.4388    3.4118 O.2     1  UNL11      -0.2116
     20 C           3.0370    1.1908    3.8296 C.ar    1  UNL11       0.1004
     21 C           3.6358    1.3516    5.0495 C.ar    1  UNL11      -0.0441
     22 C           3.9083    0.2413    5.8156 C.ar    1  UNL11      -0.0608
     23 C           3.5712   -1.0131    5.3390 C.ar    1  UNL11      -0.0611
     24 C           2.9688   -1.1511    4.1081 C.ar    1  UNL11      -0.0518
     25 C           2.6810   -0.0747    3.3167 C.ar    1  UNL11       0.0192
     26 C          -0.5378   -0.3171    0.8245 C.ar    1  UNL11       0.1730
     27 F          -0.6239    0.6166    1.8349 F       1  UNL11      -0.2009
     28 H          -2.4173    2.8441    1.6971 H       1  UNL11       0.3006
     29 H          -1.7223    1.2172    1.9464 H       1  UNL11       0.3006
     30 H          -2.9777    3.5146   -0.6204 H       1  UNL11       0.0386
     31 H          -4.5247    2.8638    0.0157 H       1  UNL11       0.0386
     32 H          -4.4480    2.8857   -2.4775 H       1  UNL11       0.0276
     33 H          -2.8656    1.9685   -2.4250 H       1  UNL11       0.0276
     34 H          -4.5208    0.4324   -3.0563 H       1  UNL11       0.0382
     35 H          -5.6152    0.7806   -1.7115 H       1  UNL11       0.0382
     36 H          -0.3421   -3.3439   -2.3853 H       1  UNL11       0.0631
     37 H           1.4410   -2.2712    2.2847 H       1  UNL11       0.0380
     38 H           2.4306   -1.9051    0.8594 H       1  UNL11       0.0380
     39 H           1.9696    2.9417    1.2245 H       1  UNL11       0.4829
     40 H           3.8853    2.3223    5.4048 H       1  UNL11       0.0627
     41 H           4.3764    0.3581    6.7753 H       1  UNL11       0.0618
     42 H           3.7731   -1.9049    5.9148 H       1  UNL11       0.0618
     43 H           2.7034   -2.1310    3.7026 H       1  UNL11       0.0624
@<TRIPOS>BOND
     1     1     2    2
     2     1    28    1
     3     1    29    1
     4     2     3    1
     5     3     4    1
     6     3    30    1
     7     3    31    1
     8     4     5    1
     9     4    32    1
    10     4    33    1
    11     5     6    1
    12     5    34    1
    13     5    35    1
    14     6     7    2
    15     6     8   am
    16     8     9    1
    17     8     2    1
    18     9    10   ar
    19    10    11   ar
    20    11    12   ar
    21    11    36    1
    22    12    13   ar
    23    12    10    1
    24    13    14    1
    25    13    26   ar
    26    14    15    1
    27    14    37    1
    28    14    38    1
    29    15    16    2
    30    16    17    1
    31    17    18   am
    32    17    39    1
    33    18    19    2
    34    18    20    1
    35    20    21   ar
    36    21    22   ar
    37    21    40    1
    38    22    23   ar
    39    22    41    1
    40    23    24   ar
    41    23    42    1
    42    24    25   ar
    43    24    43    1
    44    25    15    1
    45    25    20   ar
    46    26    27    1
    47    26     9   ar
@<TRIPOS>MOLECULE
*****
 43 47 0 0 0
SMALL
GASTEIGER

@<TRIPOS>ATOM
      1 N          -4.1455   -1.5554   -0.7570 N.2     1  UNL11      -0.2917
      2 C          -3.9463   -0.3319   -0.3269 C.2     1  UNL11       0.2504
      3 C          -5.0792    0.4394    0.2340 C.3     1  UNL11       0.0478
      4 C          -4.5718    1.6815    0.9191 C.3     1  UNL11      -0.0318
      5 C          -3.7112    2.5453    0.0231 C.3     1  UNL11       0.0484
      6 C          -2.6400    1.6889   -0.5872 C.2     1  UNL11       0.3083
      7 O          -1.7375    2.2292   -1.2839 O.2     1  UNL11      -0.2471
      8 N          -2.6615    0.2716   -0.3694 N.am    1  UNL11      -0.1261
      9 C          -1.4808   -0.4848   -0.1950 C.ar    1  UNL11       0.1718
     10 C          -1.0425   -1.5268   -0.9722 C.ar    1  UNL11       0.0312
     11 C          -0.3681   -2.6250   -1.6029 C.ar    1  UNL11      -0.0418
     12 C           0.1897   -2.0249   -0.4420 C.ar    1  UNL11      -0.0068
     13 C           0.4534   -1.2326    0.6731 C.ar    1  UNL11       0.0057
     14 C           1.6473   -1.4818    1.5224 C.3     1  UNL11       0.0245
     15 C           1.2121   -1.7794    2.8801 C.2     1  UNL11       0.1193
     16 N           0.4107   -2.8785    3.0599 N.2     1  UNL11      -0.0073
     17 N           0.0072   -3.2497    4.2476 N.am    1  UNL11      -0.0356
     18 C           0.3453   -2.5921    5.3445 C.2     1  UNL11       0.4383
     19 O          -0.0749   -2.9954    6.4701 O.2     1  UNL11      -0.2116
     20 C           1.1492   -1.4713    5.2840 C.ar    1  UNL11       0.1004
     21 C           1.4989   -0.7802    6.4120 C.ar    1  UNL11      -0.0441
     22 C           2.2938    0.3372    6.2959 C.ar    1  UNL11      -0.0608
     23 C           2.7239    0.7386    5.0436 C.ar    1  UNL11      -0.0611
     24 C           2.3597    0.0273    3.9217 C.ar    1  UNL11      -0.0518
     25 C           1.5724   -1.0874    3.9936 C.ar    1  UNL11       0.0192
     26 C          -0.5378   -0.3171    0.8245 C.ar    1  UNL11       0.1730
     27 F          -0.6239    0.6166    1.8349 F       1  UNL11      -0.2009
     28 H          -5.1202   -1.9216   -0.6739 H       1  UNL11       0.3006
     29 H          -3.4229   -2.1582   -1.1793 H       1  UNL11       0.3006
     30 H          -5.5848   -0.1765    1.0212 H       1  UNL11       0.0386
     31 H          -5.8476    0.6710   -0.5391 H       1  UNL11       0.0386
     32 H          -5.4220    2.2471    1.3471 H       1  UNL11       0.0276
     33 H          -3.8938    1.3273    1.7551 H       1  UNL11       0.0276
     34 H          -3.2306    3.3117    0.6966 H       1  UNL11       0.0382
     35 H          -4.2654    3.1152   -0.7239 H       1  UNL11       0.0382
     36 H          -0.3421   -3.3439   -2.3853 H       1  UNL11       0.0631
     37 H           2.2971   -2.2751    1.0803 H       1  UNL11       0.0380
     38 H           2.2553   -0.5533    1.5025 H       1  UNL11       0.0380
     39 H          -0.6125   -4.1056    4.3098 H       1  UNL11       0.4829
     40 H           1.1644   -1.1029    7.3685 H       1  UNL11       0.0627
     41 H           2.5748    0.8849    7.1762 H       1  UNL11       0.0618
     42 H           3.3473    1.6122    4.9178 H       1  UNL11       0.0618
     43 H           2.6753    0.3295    2.9197 H       1  UNL11       0.0624
@<TRIPOS>BOND
     1     1     2    2
     2     1    28    1
     3     1    29    1
     4     2     3    1
     5     3     4    1
     6     3    30    1
     7     3    31    1
     8     4     5    1
     9     4    32    1
    10     4    33    1
    11     5     6    1
    12     5    34    1
    13     5    35    1
    14     6     7    2
    15     6     8   am
    16     8     9    1
    17     8     2    1
    18     9    10   ar
    19    10    11   ar
    20    11    12   ar
    21    11    36    1
    22    12    13   ar
    23    12    10    1
    24    13    14    1
    25    13    26   ar
    26    14    15    1
    27    14    37    1
    28    14    38    1
    29    15    16    2
    30    16    17    1
    31    17    18   am
    32    17    39    1
    33    18    19    2
    34    18    20    1
    35    20    21   ar
    36    21    22   ar
    37    21    40    1
    38    22    23   ar
    39    22    41    1
    40    23    24   ar
    41    23    42    1
    42    24    25   ar
    43    24    43    1
    44    25    15    1
    45    25    20   ar
    46    26    27    1
    47    26     9   ar
@<TRIPOS>MOLECULE
*****
 43 47 0 0 0
SMALL
GASTEIGER

@<TRIPOS>ATOM
      1 N          -2.6828    1.3121    1.7771 N.2     1  UNL11      -0.2917
      2 C          -2.9980    1.3399    0.5038 C.2     1  UNL11       0.2504
      3 C          -3.7063    2.5173   -0.0485 C.3     1  UNL11       0.0478
      4 C          -3.7057    2.4632   -1.5541 C.3     1  UNL11      -0.0318
      5 C          -4.2759    1.1737   -2.1031 C.3     1  UNL11       0.0484
      6 C          -3.5839    0.0194   -1.4382 C.2     1  UNL11       0.3083
      7 O          -3.8254   -1.1556   -1.8291 O.2     1  UNL11      -0.2471
      8 N          -2.6615    0.2716   -0.3694 N.am    1  UNL11      -0.1261
      9 C          -1.4808   -0.4848   -0.1950 C.ar    1  UNL11       0.1718
     10 C          -1.0425   -1.5268   -0.9722 C.ar    1  UNL11       0.0312
     11 C          -0.3681   -2.6250   -1.6029 C.ar    1  UNL11      -0.0418
     12 C           0.1897   -2.0249   -0.4420 C.ar    1  UNL11      -0.0068
     13 C           0.4534   -1.2326    0.6731 C.ar    1  UNL11       0.0057
     14 C           1.6473   -1.4818    1.5224 C.3     1  UNL11       0.0245
     15 C           2.8482   -1.3273    0.7128 C.2     1  UNL11       0.1193
     16 N           3.0691   -0.1013    0.1379 N.2     1  UNL11      -0.0073
     17 N           4.1420    0.1447   -0.5688 N.am    1  UNL11      -0.0356
     18 C           5.0771   -0.7687   -0.7722 C.2     1  UNL11       0.4383
     19 O           6.0965   -0.4766   -1.4662 O.2     1  UNL11      -0.2116
     20 C           4.9610   -2.0376   -0.2406 C.ar    1  UNL11       0.1004
     21 C           5.9193   -2.9914   -0.4508 C.ar    1  UNL11      -0.0441
     22 C           5.7503   -4.2446    0.0924 C.ar    1  UNL11      -0.0608
     23 C           4.6178   -4.5147    0.8399 C.ar    1  UNL11      -0.0611
     24 C           3.6662   -3.5389    1.0387 C.ar    1  UNL11      -0.0518
     25 C           3.7959   -2.2824    0.5172 C.ar    1  UNL11       0.0192
     26 C          -0.5378   -0.3171    0.8245 C.ar    1  UNL11       0.1730
     27 F          -0.6239    0.6166    1.8349 F       1  UNL11      -0.2009
     28 H          -2.9583    2.1478    2.3398 H       1  UNL11       0.3006
     29 H          -2.2085    0.5285    2.2513 H       1  UNL11       0.3006
     30 H          -3.1489    3.4453    0.2387 H       1  UNL11       0.0386
     31 H          -4.7355    2.6159    0.3671 H       1  UNL11       0.0386
     32 H          -4.2254    3.3522   -1.9610 H       1  UNL11       0.0276
     33 H          -2.6179    2.4829   -1.8710 H       1  UNL11       0.0276
     34 H          -4.0287    1.1667   -3.2035 H       1  UNL11       0.0382
     35 H          -5.3625    1.0982   -2.0444 H       1  UNL11       0.0382
     36 H          -0.3421   -3.3439   -2.3853 H       1  UNL11       0.0631
     37 H           1.6375   -0.8325    2.4308 H       1  UNL11       0.0380
     38 H           1.5622   -2.5225    1.8991 H       1  UNL11       0.0380
     39 H           4.2436    1.1123   -0.9856 H       1  UNL11       0.4829
     40 H           6.7868   -2.7683   -1.0238 H       1  UNL11       0.0627
     41 H           6.4984   -4.9991   -0.0659 H       1  UNL11       0.0618
     42 H           4.4541   -5.4885    1.2784 H       1  UNL11       0.0618
     43 H           2.7567   -3.7292    1.6145 H       1  UNL11       0.0624
@<TRIPOS>BOND
     1     1     2    2
     2     1    28    1
     3     1    29    1
     4     2     3    1
     5     3     4    1
     6     3    30    1
     7     3    31    1
     8     4     5    1
     9     4    32    1
    10     4    33    1
    11     5     6    1
    12     5    34    1
    13     5    35    1
    14     6     7    2
    15     6     8   am
    16     8     9    1
    17     8     2    1
    18     9    10   ar
    19    10    11   ar
    20    11    12   ar
    21    11    36    1
    22    12    13   ar
    23    12    10    1
    24    13    14    1
    25    13    26   ar
    26    14    15    1
    27    14    37    1
    28    14    38    1
    29    15    16    2
    30    16    17    1
    31    17    18   am
    32    17    39    1
    33    18    19    2
    34    18    20    1
    35    20    21   ar
    36    21    22   ar
    37    21    40    1
    38    22    23   ar
    39    22    41    1
    40    23    24   ar
    41    23    42    1
    42    24    25   ar
    43    24    43    1
    44    25    15    1
    45    25    20   ar
    46    26    27    1
    47    26     9   ar
@<TRIPOS>MOLECULE
*****
 43 47 0 0 0
SMALL
GASTEIGER

@<TRIPOS>ATOM
      1 N          -2.2649    1.8679    1.3582 N.2     1  UNL11      -0.2917
      2 C          -2.8122    1.5612    0.2060 C.2     1  UNL11       0.2504
      3 C          -3.5931    2.5834   -0.5277 C.3     1  UNL11       0.0478
      4 C          -3.8750    2.1121   -1.9305 C.3     1  UNL11      -0.0318
      5 C          -4.5576    0.7626   -1.9785 C.3     1  UNL11       0.0484
      6 C          -3.7713   -0.2050   -1.1426 C.2     1  UNL11       0.3083
      7 O          -4.0998   -1.4231   -1.1319 O.2     1  UNL11      -0.2471
      8 N          -2.6615    0.2716   -0.3694 N.am    1  UNL11      -0.1261
      9 C          -1.4808   -0.4848   -0.1950 C.ar    1  UNL11       0.1718
     10 C          -1.0425   -1.5268   -0.9722 C.ar    1  UNL11       0.0312
     11 C          -0.3681   -2.6250   -1.6029 C.ar    1  UNL11      -0.0418
     12 C           0.1897   -2.0249   -0.4420 C.ar    1  UNL11      -0.0068
     13 C           0.4534   -1.2326    0.6731 C.ar    1  UNL11       0.0057
     14 C           1.6473   -1.4818    1.5224 C.3     1  UNL11       0.0245
     15 C           1.5795   -2.8363    2.0535 C.2     1  UNL11       0.1193
     16 N           2.6025   -3.6926    1.7327 N.2     1  UNL11      -0.0073
     17 N           2.6503   -4.9137    2.1993 N.am    1  UNL11      -0.0356
     18 C           1.7201   -5.3972    3.0060 C.2     1  UNL11       0.4383
     19 O           1.8155   -6.5884    3.4279 O.2     1  UNL11      -0.2116
     20 C           0.6445   -4.6248    3.3968 C.ar    1  UNL11       0.1004
     21 C          -0.3265   -5.1178    4.2254 C.ar    1  UNL11      -0.0441
     22 C          -1.3840   -4.3099    4.5762 C.ar    1  UNL11      -0.0608
     23 C          -1.4441   -3.0174    4.0862 C.ar    1  UNL11      -0.0611
     24 C          -0.4552   -2.5422    3.2536 C.ar    1  UNL11      -0.0518
     25 C           0.6114   -3.3115    2.8815 C.ar    1  UNL11       0.0192
     26 C          -0.5378   -0.3171    0.8245 C.ar    1  UNL11       0.1730
     27 F          -0.6239    0.6166    1.8349 F       1  UNL11      -0.2009
     28 H          -2.4173    2.8441    1.6971 H       1  UNL11       0.3006
     29 H          -1.7223    1.2172    1.9464 H       1  UNL11       0.3006
     30 H          -2.9777    3.5146   -0.6204 H       1  UNL11       0.0386
     31 H          -4.5247    2.8638    0.0157 H       1  UNL11       0.0386
     32 H          -4.4480    2.8857   -2.4775 H       1  UNL11       0.0276
     33 H          -2.8656    1.9685   -2.4250 H       1  UNL11       0.0276
     34 H          -4.5208    0.4324   -3.0563 H       1  UNL11       0.0382
     35 H          -5.6152    0.7806   -1.7115 H       1  UNL11       0.0382
     36 H          -0.3421   -3.3439   -2.3853 H       1  UNL11       0.0631
     37 H           2.5903   -1.2708    0.9627 H       1  UNL11       0.0380
     38 H           1.6167   -0.7381    2.3459 H       1  UNL11       0.0380
     39 H           3.4675   -5.5191    1.9059 H       1  UNL11       0.4829
     40 H          -0.2649   -6.1119    4.5979 H       1  UNL11       0.0627
     41 H          -2.1498   -4.6879    5.2277 H       1  UNL11       0.0618
     42 H          -2.2616   -2.3583    4.3409 H       1  UNL11       0.0618
     43 H          -0.4846   -1.5297    2.8426 H       1  UNL11       0.0624
@<TRIPOS>BOND
     1     1     2    2
     2     1    28    1
     3     1    29    1
     4     2     3    1
     5     3     4    1
     6     3    30    1
     7     3    31    1
     8     4     5    1
     9     4    32    1
    10     4    33    1
    11     5     6    1
    12     5    34    1
    13     5    35    1
    14     6     7    2
    15     6     8   am
    16     8     9    1
    17     8     2    1
    18     9    10   ar
    19    10    11   ar
    20    11    12   ar
    21    11    36    1
    22    12    13   ar
    23    12    10    1
    24    13    14    1
    25    13    26   ar
    26    14    15    1
    27    14    37    1
    28    14    38    1
    29    15    16    2
    30    16    17    1
    31    17    18   am
    32    17    39    1
    33    18    19    2
    34    18    20    1
    35    20    21   ar
    36    21    22   ar
    37    21    40    1
    38    22    23   ar
    39    22    41    1
    40    23    24   ar
    41    23    42    1
    42    24    25   ar
    43    24    43    1
    44    25    15    1
    45    25    20   ar
    46    26    27    1
    47    26     9   ar
@<TRIPOS>MOLECULE
*****
 43 47 0 0 0
SMALL
GASTEIGER

@<TRIPOS>ATOM
      1 N          -1.9329    1.5557   -2.2430 N.2     1  UNL11      -0.2917
      2 C          -2.9084    1.0037   -1.5610 C.2     1  UNL11       0.2504
      3 C          -4.3016    1.1271   -2.0474 C.3     1  UNL11       0.0478
      4 C          -5.2017    0.1901   -1.2848 C.3     1  UNL11      -0.0318
      5 C          -5.1258    0.3812    0.2143 C.3     1  UNL11       0.0484
      6 C          -3.6849    0.3393    0.6330 C.2     1  UNL11       0.3083
      7 O          -3.3960    0.3655    1.8608 O.2     1  UNL11      -0.2471
      8 N          -2.6615    0.2716   -0.3694 N.am    1  UNL11      -0.1261
      9 C          -1.4808   -0.4848   -0.1950 C.ar    1  UNL11       0.1718
     10 C          -1.0425   -1.5268   -0.9722 C.ar    1  UNL11       0.0312
     11 C          -0.3681   -2.6250   -1.6029 C.ar    1  UNL11      -0.0418
     12 C           0.1897   -2.0249   -0.4420 C.ar    1  UNL11      -0.0068
     13 C           0.4534   -1.2326    0.6731 C.ar    1  UNL11       0.0057
     14 C           1.6473   -1.4818    1.5224 C.3     1  UNL11       0.0245
     15 C           2.7064   -2.0505    0.7000 C.2     1  UNL11       0.1193
     16 N           2.7606   -3.4176    0.5964 N.2     1  UNL11      -0.0073
     17 N           3.6484   -4.0166   -0.1545 N.am    1  UNL11      -0.0356
     18 C           4.5451   -3.3452   -0.8582 C.2     1  UNL11       0.4383
     19 O           5.3833   -3.9767   -1.5686 O.2     1  UNL11      -0.2116
     20 C           4.5839   -1.9654   -0.8313 C.ar    1  UNL11       0.1004
     21 C           5.5117   -1.2619   -1.5501 C.ar    1  UNL11      -0.0441
     22 C           5.5145    0.1125   -1.4802 C.ar    1  UNL11      -0.0608
     23 C           4.5804    0.7550   -0.6871 C.ar    1  UNL11      -0.0611
     24 C           3.6555    0.0264    0.0277 C.ar    1  UNL11      -0.0518
     25 C           3.6186   -1.3391   -0.0144 C.ar    1  UNL11       0.0192
     26 C          -0.5378   -0.3171    0.8245 C.ar    1  UNL11       0.1730
     27 F          -0.6239    0.6166    1.8349 F       1  UNL11      -0.2009
     28 H          -2.2072    2.0628   -3.1140 H       1  UNL11       0.3006
     29 H          -0.9381    1.5379   -1.9712 H       1  UNL11       0.3006
     30 H          -4.3425    0.8078   -3.1202 H       1  UNL11       0.0386
     31 H          -4.6635    2.1803   -2.0089 H       1  UNL11       0.0386
     32 H          -6.2392    0.2779   -1.6615 H       1  UNL11       0.0276
     33 H          -4.8134   -0.8553   -1.4857 H       1  UNL11       0.0276
     34 H          -5.6669   -0.4978    0.6688 H       1  UNL11       0.0382
     35 H          -5.6417    1.2684    0.5841 H       1  UNL11       0.0382
     36 H          -0.3421   -3.3439   -2.3853 H       1  UNL11       0.0631
     37 H           1.9552   -0.5558    2.0653 H       1  UNL11       0.0380
     38 H           1.3371   -2.1998    2.3101 H       1  UNL11       0.0380
     39 H           3.6332   -5.0746   -0.1828 H       1  UNL11       0.4829
     40 H           6.2210   -1.7690   -2.1589 H       1  UNL11       0.0627
     41 H           6.2380    0.6730   -2.0425 H       1  UNL11       0.0618
     42 H           4.5568    1.8324   -0.6089 H       1  UNL11       0.0618
     43 H           2.9147    0.5080    0.6713 H       1  UNL11       0.0624
@<TRIPOS>BOND
     1     1     2    2
     2     1    28    1
     3     1    29    1
     4     2     3    1
     5     3     4    1
     6     3    30    1
     7     3    31    1
     8     4     5    1
     9     4    32    1
    10     4    33    1
    11     5     6    1
    12     5    34    1
    13     5    35    1
    14     6     7    2
    15     6     8   am
    16     8     9    1
    17     8     2    1
    18     9    10   ar
    19    10    11   ar
    20    11    12   ar
    21    11    36    1
    22    12    13   ar
    23    12    10    1
    24    13    14    1
    25    13    26   ar
    26    14    15    1
    27    14    37    1
    28    14    38    1
    29    15    16    2
    30    16    17    1
    31    17    18   am
    32    17    39    1
    33    18    19    2
    34    18    20    1
    35    20    21   ar
    36    21    22   ar
    37    21    40    1
    38    22    23   ar
    39    22    41    1
    40    23    24   ar
    41    23    42    1
    42    24    25   ar
    43    24    43    1
    44    25    15    1
    45    25    20   ar
    46    26    27    1
    47    26     9   ar
