@<TRIPOS>MOLECULE
*****
 35 37 0 0 0
SMALL
GASTEIGER

@<TRIPOS>ATOM
      1 C          -0.1198   -5.5314    0.4004 C.2     1  UNL11      -0.0951
      2 C          -0.8377   -5.3318   -0.6574 C.2     1  UNL11      -0.0212
      3 C          -1.4435   -4.1757   -1.2123 C.2     1  UNL11       0.1912
      4 O          -2.1252   -4.3898   -2.3266 O.2     1  UNL11      -0.2871
      5 C          -1.4087   -2.8198   -0.7258 C.2     1  UNL11       0.0875
      6 C          -2.4605   -1.9769   -1.1561 C.2     1  UNL11       0.0002
      7 C          -2.4937   -0.6966   -0.6878 C.2     1  UNL11       0.2376
      8 F          -3.5242    0.0983   -1.1213 F       1  UNL11      -0.1947
      9 C          -1.5333   -0.2318    0.1797 C.2     1  UNL11       0.4436
     10 O          -1.6225    0.9573    0.5719 O.2     1  UNL11      -0.2114
     11 N          -0.5276   -1.0458    0.5889 N.am    1  UNL11      -0.1308
     12 C           0.4643   -0.5644    1.4391 C.3     1  UNL11       0.1736
     13 C           1.6929    0.0365    1.0193 C.ar    1  UNL11       0.0317
     14 C           2.7670   -0.8595    0.8483 C.ar    1  UNL11      -0.0516
     15 C           3.9984   -0.4080    0.4474 C.ar    1  UNL11      -0.0550
     16 C           4.1949    0.9345    0.2076 C.ar    1  UNL11       0.0125
     17 C           3.1616    1.8324    0.3671 C.ar    1  UNL11       0.2384
     18 N           3.0457    3.1618    0.2151 N.ar    1  UNL11      -0.1241
     19 N           1.8247    3.5291    0.4999 N.ar    1  UNL11      -0.1713
     20 C           1.0727    2.4497    0.8558 C.ar    1  UNL11       0.0742
     21 C           1.9059    1.3622    0.7773 C.ar    1  UNL11       0.0785
     22 C          -0.5005   -2.3098    0.1232 C.2     1  UNL11       0.1790
     23 H           0.2271   -4.8873    1.1615 H       1  UNL11       0.0536
     24 H           0.2387   -6.5873    0.6062 H       1  UNL11       0.0536
     25 H          -1.0290   -6.2890   -1.2823 H       1  UNL11       0.0650
     26 H          -3.2261   -2.3558   -1.8536 H       1  UNL11       0.0659
     27 H           0.0219    0.1765    2.2144 H       1  UNL11       0.1079
     28 H           0.7772   -1.3930    2.1872 H       1  UNL11       0.1079
     29 H           2.6217   -1.9068    1.0331 H       1  UNL11       0.0623
     30 H           4.8291   -1.0835    0.3126 H       1  UNL11       0.0620
     31 H           5.1507    1.3228   -0.1089 H       1  UNL11       0.0684
     32 H           3.8641    3.7535   -0.0916 H       1  UNL11       0.4871
     33 H           0.0436    2.4551    1.1381 H       1  UNL11       0.0870
     34 H           0.2940   -2.9028    0.5073 H       1  UNL11       0.1378
     35 H           1.4942    4.4557    0.4625 H       1  UNL11       0.2358
@<TRIPOS>BOND
     1     1     2    2
     2     1    23    1
     3     1    24    1
     4     2     3    1
     5     2    25    1
     6     3     4    2
     7     3     5    1
     8     5     6    1
     9     6     7    2
    10     6    26    1
    11     7     8    1
    12     7     9    1
    13     9    10    2
    14     9    11   am
    15    11    12    1
    16    11    22    1
    17    12    13    1
    18    12    27    1
    19    12    28    1
    20    13    14   ar
    21    14    15   ar
    22    14    29    1
    23    15    16   ar
    24    15    30    1
    25    16    17   ar
    26    16    31    1
    27    17    18   ar
    28    18    19   ar
    29    18    32    1
    30    19    20   ar
    31    20    21   ar
    32    20    33    1
    33    21    13   ar
    34    21    17   ar
    35    22     5    2
    36    22    34    1
    37    19    35    1
@<TRIPOS>MOLECULE
*****
 35 37 0 0 0
SMALL
GASTEIGER

@<TRIPOS>ATOM
      1 C          -1.9362   -5.1369    2.1428 C.2     1  UNL11      -0.0951
      2 C          -2.9677   -4.6937    1.4998 C.2     1  UNL11      -0.0212
      3 C          -3.1309   -3.7092    0.4920 C.2     1  UNL11       0.1912
      4 O          -4.2442   -3.8211   -0.2150 O.2     1  UNL11      -0.2871
      5 C          -2.2507   -2.6223    0.1447 C.2     1  UNL11       0.0875
      6 C          -2.4489   -2.0444   -1.1315 C.2     1  UNL11       0.0002
      7 C          -1.6680   -0.9848   -1.4879 C.2     1  UNL11       0.2376
      8 F          -1.8816   -0.4443   -2.7304 F       1  UNL11      -0.1947
      9 C          -0.7120   -0.4872   -0.6339 C.2     1  UNL11       0.4436
     10 O          -0.0270    0.4896   -1.0247 O.2     1  UNL11      -0.2114
     11 N          -0.5276   -1.0458    0.5889 N.am    1  UNL11      -0.1308
     12 C           0.4643   -0.5644    1.4391 C.3     1  UNL11       0.1736
     13 C           1.6929    0.0365    1.0193 C.ar    1  UNL11       0.0317
     14 C           2.7670   -0.8595    0.8483 C.ar    1  UNL11      -0.0516
     15 C           3.9984   -0.4080    0.4474 C.ar    1  UNL11      -0.0550
     16 C           4.1949    0.9345    0.2076 C.ar    1  UNL11       0.0125
     17 C           3.1616    1.8324    0.3671 C.ar    1  UNL11       0.2384
     18 N           3.0457    3.1618    0.2151 N.ar    1  UNL11      -0.1241
     19 N           1.8247    3.5291    0.4999 N.ar    1  UNL11      -0.1713
     20 C           1.0727    2.4497    0.8558 C.ar    1  UNL11       0.0742
     21 C           1.9059    1.3622    0.7773 C.ar    1  UNL11       0.0785
     22 C          -1.3025   -2.0920    0.9355 C.2     1  UNL11       0.1790
     23 H          -0.9095   -4.8941    2.1026 H       1  UNL11       0.0536
     24 H          -2.1027   -5.9483    2.9173 H       1  UNL11       0.0536
     25 H          -3.9646   -5.1996    1.8058 H       1  UNL11       0.0650
     26 H          -3.2160   -2.4501   -1.8119 H       1  UNL11       0.0659
     27 H           0.0219    0.1765    2.2144 H       1  UNL11       0.1079
     28 H           0.7772   -1.3930    2.1872 H       1  UNL11       0.1079
     29 H           2.6217   -1.9068    1.0331 H       1  UNL11       0.0623
     30 H           4.8291   -1.0835    0.3126 H       1  UNL11       0.0620
     31 H           5.1507    1.3228   -0.1089 H       1  UNL11       0.0684
     32 H           3.8641    3.7535   -0.0916 H       1  UNL11       0.4871
     33 H           0.0436    2.4551    1.1381 H       1  UNL11       0.0870
     34 H          -1.1287   -2.4615    1.9172 H       1  UNL11       0.1378
     35 H           1.4942    4.4557    0.4625 H       1  UNL11       0.2358
@<TRIPOS>BOND
     1     1     2    2
     2     1    23    1
     3     1    24    1
     4     2     3    1
     5     2    25    1
     6     3     4    2
     7     3     5    1
     8     5     6    1
     9     6     7    2
    10     6    26    1
    11     7     8    1
    12     7     9    1
    13     9    10    2
    14     9    11   am
    15    11    12    1
    16    11    22    1
    17    12    13    1
    18    12    27    1
    19    12    28    1
    20    13    14   ar
    21    14    15   ar
    22    14    29    1
    23    15    16   ar
    24    15    30    1
    25    16    17   ar
    26    16    31    1
    27    17    18   ar
    28    18    19   ar
    29    18    32    1
    30    19    20   ar
    31    20    21   ar
    32    20    33    1
    33    21    13   ar
    34    21    17   ar
    35    22     5    2
    36    22    34    1
    37    19    35    1
@<TRIPOS>MOLECULE
*****
 35 37 0 0 0
SMALL
GASTEIGER

@<TRIPOS>ATOM
      1 C          -2.0837    2.5371   -1.7005 C.2     1  UNL11      -0.0951
      2 C          -2.6391    1.5651   -2.3492 C.2     1  UNL11      -0.0212
      3 C          -2.8483    0.1950   -2.0483 C.2     1  UNL11       0.1912
      4 O          -3.8070   -0.3855   -2.7526 O.2     1  UNL11      -0.2871
      5 C          -2.1623   -0.6301   -1.0865 C.2     1  UNL11       0.0875
      6 C          -2.5464   -1.9914   -1.0478 C.2     1  UNL11       0.0002
      7 C          -1.8953   -2.8209   -0.1831 C.2     1  UNL11       0.2376
      8 F          -2.2880   -4.1351   -0.1665 F       1  UNL11      -0.1947
      9 C          -0.8915   -2.3524    0.6316 C.2     1  UNL11       0.4436
     10 O          -0.3337   -3.1691    1.4047 O.2     1  UNL11      -0.2114
     11 N          -0.5276   -1.0458    0.5889 N.am    1  UNL11      -0.1308
     12 C           0.4643   -0.5644    1.4391 C.3     1  UNL11       0.1736
     13 C           1.6929    0.0365    1.0193 C.ar    1  UNL11       0.0317
     14 C           1.8891    1.3613    1.4578 C.ar    1  UNL11      -0.0516
     15 C           3.0279    2.0482    1.1231 C.ar    1  UNL11      -0.0550
     16 C           3.9949    1.4431    0.3502 C.ar    1  UNL11       0.0125
     17 C           3.8284    0.1484   -0.0920 C.ar    1  UNL11       0.2384
     18 N           4.5690   -0.6880   -0.8375 N.ar    1  UNL11      -0.1241
     19 N           3.9433   -1.8275   -0.9672 N.ar    1  UNL11      -0.1713
     20 C           2.7512   -1.7949   -0.3076 C.ar    1  UNL11       0.0742
     21 C           2.6610   -0.5465    0.2549 C.ar    1  UNL11       0.0785
     22 C          -1.1742   -0.2314   -0.2677 C.2     1  UNL11       0.1790
     23 H          -1.6236    2.5934   -0.7520 H       1  UNL11       0.0536
     24 H          -2.0537    3.5565   -2.1964 H       1  UNL11       0.0536
     25 H          -3.0505    1.8694   -3.3892 H       1  UNL11       0.0650
     26 H          -3.3538   -2.3595   -1.7026 H       1  UNL11       0.0659
     27 H           0.0219    0.1765    2.2144 H       1  UNL11       0.1079
     28 H           0.7772   -1.3930    2.1872 H       1  UNL11       0.1079
     29 H           1.1404    1.8394    2.0602 H       1  UNL11       0.0623
     30 H           3.1906    3.0629    1.4524 H       1  UNL11       0.0620
     31 H           4.9023    1.9549    0.0690 H       1  UNL11       0.0684
     32 H           5.5061   -0.3955   -1.2251 H       1  UNL11       0.4871
     33 H           2.0358   -2.5843   -0.2449 H       1  UNL11       0.0870
     34 H          -0.8193    0.7709   -0.2740 H       1  UNL11       0.1378
     35 H           4.2852   -2.6013   -1.4708 H       1  UNL11       0.2358
@<TRIPOS>BOND
     1     1     2    2
     2     1    23    1
     3     1    24    1
     4     2     3    1
     5     2    25    1
     6     3     4    2
     7     3     5    1
     8     5     6    1
     9     6     7    2
    10     6    26    1
    11     7     8    1
    12     7     9    1
    13     9    10    2
    14     9    11   am
    15    11    12    1
    16    11    22    1
    17    12    13    1
    18    12    27    1
    19    12    28    1
    20    13    14   ar
    21    14    15   ar
    22    14    29    1
    23    15    16   ar
    24    15    30    1
    25    16    17   ar
    26    16    31    1
    27    17    18   ar
    28    18    19   ar
    29    18    32    1
    30    19    20   ar
    31    20    21   ar
    32    20    33    1
    33    21    13   ar
    34    21    17   ar
    35    22     5    2
    36    22    34    1
    37    19    35    1
@<TRIPOS>MOLECULE
*****
 35 37 0 0 0
SMALL
GASTEIGER

@<TRIPOS>ATOM
      1 C          -2.0837    2.5371   -1.7005 C.2     1  UNL11      -0.0951
      2 C          -2.6391    1.5651   -2.3492 C.2     1  UNL11      -0.0212
      3 C          -2.8483    0.1950   -2.0483 C.2     1  UNL11       0.1912
      4 O          -3.8070   -0.3855   -2.7526 O.2     1  UNL11      -0.2871
      5 C          -2.1623   -0.6301   -1.0865 C.2     1  UNL11       0.0875
      6 C          -2.5464   -1.9914   -1.0478 C.2     1  UNL11       0.0002
      7 C          -1.8953   -2.8209   -0.1831 C.2     1  UNL11       0.2376
      8 F          -2.2880   -4.1351   -0.1665 F       1  UNL11      -0.1947
      9 C          -0.8915   -2.3524    0.6316 C.2     1  UNL11       0.4436
     10 O          -0.3337   -3.1691    1.4047 O.2     1  UNL11      -0.2114
     11 N          -0.5276   -1.0458    0.5889 N.am    1  UNL11      -0.1308
     12 C           0.4643   -0.5644    1.4391 C.3     1  UNL11       0.1736
     13 C           1.6929    0.0365    1.0193 C.ar    1  UNL11       0.0317
     14 C           2.7670   -0.8595    0.8483 C.ar    1  UNL11      -0.0516
     15 C           3.9984   -0.4080    0.4474 C.ar    1  UNL11      -0.0550
     16 C           4.1949    0.9345    0.2076 C.ar    1  UNL11       0.0125
     17 C           3.1616    1.8324    0.3671 C.ar    1  UNL11       0.2384
     18 N           3.0457    3.1618    0.2151 N.ar    1  UNL11      -0.1241
     19 N           1.8247    3.5291    0.4999 N.ar    1  UNL11      -0.1713
     20 C           1.0727    2.4497    0.8558 C.ar    1  UNL11       0.0742
     21 C           1.9059    1.3622    0.7773 C.ar    1  UNL11       0.0785
     22 C          -1.1742   -0.2314   -0.2677 C.2     1  UNL11       0.1790
     23 H          -1.6236    2.5934   -0.7520 H       1  UNL11       0.0536
     24 H          -2.0537    3.5565   -2.1964 H       1  UNL11       0.0536
     25 H          -3.0505    1.8694   -3.3892 H       1  UNL11       0.0650
     26 H          -3.3538   -2.3595   -1.7026 H       1  UNL11       0.0659
     27 H           0.0219    0.1765    2.2144 H       1  UNL11       0.1079
     28 H           0.7772   -1.3930    2.1872 H       1  UNL11       0.1079
     29 H           2.6217   -1.9068    1.0331 H       1  UNL11       0.0623
     30 H           4.8291   -1.0835    0.3126 H       1  UNL11       0.0620
     31 H           5.1507    1.3228   -0.1089 H       1  UNL11       0.0684
     32 H           3.8641    3.7535   -0.0916 H       1  UNL11       0.4871
     33 H           0.0436    2.4551    1.1381 H       1  UNL11       0.0870
     34 H          -0.8193    0.7709   -0.2740 H       1  UNL11       0.1378
     35 H           1.4942    4.4557    0.4625 H       1  UNL11       0.2358
@<TRIPOS>BOND
     1     1     2    2
     2     1    23    1
     3     1    24    1
     4     2     3    1
     5     2    25    1
     6     3     4    2
     7     3     5    1
     8     5     6    1
     9     6     7    2
    10     6    26    1
    11     7     8    1
    12     7     9    1
    13     9    10    2
    14     9    11   am
    15    11    12    1
    16    11    22    1
    17    12    13    1
    18    12    27    1
    19    12    28    1
    20    13    14   ar
    21    14    15   ar
    22    14    29    1
    23    15    16   ar
    24    15    30    1
    25    16    17   ar
    26    16    31    1
    27    17    18   ar
    28    18    19   ar
    29    18    32    1
    30    19    20   ar
    31    20    21   ar
    32    20    33    1
    33    21    13   ar
    34    21    17   ar
    35    22     5    2
    36    22    34    1
    37    19    35    1
@<TRIPOS>MOLECULE
*****
 35 37 0 0 0
SMALL
GASTEIGER

@<TRIPOS>ATOM
      1 C          -5.7783    1.3158    0.3104 C.2     1  UNL11      -0.0951
      2 C          -4.6057    0.7695    0.2840 C.2     1  UNL11      -0.0212
      3 C          -4.1364   -0.4949   -0.1549 C.2     1  UNL11       0.1912
      4 O          -5.0732   -1.2943   -0.6399 O.2     1  UNL11      -0.2871
      5 C          -2.7912   -1.0114   -0.1368 C.2     1  UNL11       0.0875
      6 C          -2.5124   -2.0538   -1.0520 C.2     1  UNL11       0.0002
      7 C          -1.2416   -2.5459   -1.1015 C.2     1  UNL11       0.2376
      8 F          -0.9996   -3.5558   -1.9976 F       1  UNL11      -0.1947
      9 C          -0.2535   -2.0461   -0.2861 C.2     1  UNL11       0.4436
     10 O           0.8947   -2.5445   -0.3821 O.2     1  UNL11      -0.2114
     11 N          -0.5276   -1.0458    0.5889 N.am    1  UNL11      -0.1308
     12 C           0.4643   -0.5644    1.4391 C.3     1  UNL11       0.1736
     13 C           1.6929    0.0365    1.0193 C.ar    1  UNL11       0.0317
     14 C           2.5501    0.4340    2.0648 C.ar    1  UNL11      -0.0516
     15 C           3.7590    1.0220    1.7938 C.ar    1  UNL11      -0.0550
     16 C           4.1464    1.2297    0.4879 C.ar    1  UNL11       0.0125
     17 C           3.3273    0.8504   -0.5536 C.ar    1  UNL11       0.2384
     18 N           3.4233    0.9180   -1.8915 N.ar    1  UNL11      -0.1241
     19 N           2.3492    0.4080   -2.4327 N.ar    1  UNL11      -0.1713
     20 C           1.4879   -0.0232   -1.4685 C.ar    1  UNL11       0.0742
     21 C           2.0930    0.2499   -0.2675 C.ar    1  UNL11       0.0785
     22 C          -1.7848   -0.5635    0.6327 C.2     1  UNL11       0.1790
     23 H          -6.7320    0.9775    0.0094 H       1  UNL11       0.0536
     24 H          -5.8643    2.3662    0.7287 H       1  UNL11       0.0536
     25 H          -3.7633    1.4456    0.7040 H       1  UNL11       0.0650
     26 H          -3.3104   -2.4511   -1.7013 H       1  UNL11       0.0659
     27 H           0.0219    0.1765    2.2144 H       1  UNL11       0.1079
     28 H           0.7772   -1.3930    2.1872 H       1  UNL11       0.1079
     29 H           2.2553    0.2756    3.0846 H       1  UNL11       0.0623
     30 H           4.4247    1.3310    2.5850 H       1  UNL11       0.0620
     31 H           5.0905    1.6894    0.2399 H       1  UNL11       0.0684
     32 H           4.2714    1.3350   -2.3614 H       1  UNL11       0.4871
     33 H           0.5359   -0.4802   -1.6224 H       1  UNL11       0.0870
     34 H          -1.9241    0.2393    1.3159 H       1  UNL11       0.1378
     35 H           2.1850    0.3440   -3.4013 H       1  UNL11       0.2358
@<TRIPOS>BOND
     1     1     2    2
     2     1    23    1
     3     1    24    1
     4     2     3    1
     5     2    25    1
     6     3     4    2
     7     3     5    1
     8     5     6    1
     9     6     7    2
    10     6    26    1
    11     7     8    1
    12     7     9    1
    13     9    10    2
    14     9    11   am
    15    11    12    1
    16    11    22    1
    17    12    13    1
    18    12    27    1
    19    12    28    1
    20    13    14   ar
    21    14    15   ar
    22    14    29    1
    23    15    16   ar
    24    15    30    1
    25    16    17   ar
    26    16    31    1
    27    17    18   ar
    28    18    19   ar
    29    18    32    1
    30    19    20   ar
    31    20    21   ar
    32    20    33    1
    33    21    13   ar
    34    21    17   ar
    35    22     5    2
    36    22    34    1
    37    19    35    1
@<TRIPOS>MOLECULE
*****
 35 37 0 0 0
SMALL
GASTEIGER

@<TRIPOS>ATOM
      1 C          -5.2407   -3.5160    2.6762 C.2     1  UNL11      -0.0951
      2 C          -4.1339   -3.2687    2.0534 C.2     1  UNL11      -0.0212
      3 C          -3.8424   -2.7366    0.7714 C.2     1  UNL11       0.1912
      4 O          -4.8408   -2.8040   -0.0950 O.2     1  UNL11      -0.2871
      5 C          -2.6160   -2.1445    0.3003 C.2     1  UNL11       0.0875
      6 C          -2.4626   -2.0647   -1.1040 C.2     1  UNL11       0.0002
      7 C          -1.3371   -1.4734   -1.5973 C.2     1  UNL11       0.2376
      8 F          -1.2145   -1.4098   -2.9620 F       1  UNL11      -0.1947
      9 C          -0.3738   -0.9665   -0.7570 C.2     1  UNL11       0.4436
     10 O           0.6381   -0.4356   -1.2768 O.2     1  UNL11      -0.2114
     11 N          -0.5276   -1.0458    0.5889 N.am    1  UNL11      -0.1308
     12 C           0.4643   -0.5644    1.4391 C.3     1  UNL11       0.1736
     13 C           1.6929    0.0365    1.0193 C.ar    1  UNL11       0.0317
     14 C           2.8590   -0.6262    1.4515 C.ar    1  UNL11      -0.0516
     15 C           4.1004   -0.1503    1.1148 C.ar    1  UNL11      -0.0550
     16 C           4.2164    0.9873    0.3460 C.ar    1  UNL11       0.0125
     17 C           3.0923    1.6548   -0.0900 C.ar    1  UNL11       0.2384
     18 N           2.8868    2.7564   -0.8303 N.ar    1  UNL11      -0.1241
     19 N           1.6032    2.9656   -0.9549 N.ar    1  UNL11      -0.1713
     20 C           0.8970    2.0034   -0.2970 C.ar    1  UNL11       0.0742
     21 C           1.8271    1.1614    0.2589 C.ar    1  UNL11       0.0785
     22 C          -1.6419   -1.6306    1.0702 C.2     1  UNL11       0.1790
     23 H          -6.2546   -3.3912    2.4100 H       1  UNL11       0.0536
     24 H          -5.1750   -3.9552    3.7196 H       1  UNL11       0.0536
     25 H          -3.1836   -3.5349    2.6613 H       1  UNL11       0.0650
     26 H          -3.2383   -2.4753   -1.7717 H       1  UNL11       0.0659
     27 H           0.0219    0.1765    2.2144 H       1  UNL11       0.1079
     28 H           0.7772   -1.3930    2.1872 H       1  UNL11       0.1079
     29 H           2.7767   -1.5129    2.0506 H       1  UNL11       0.0623
     30 H           5.0012   -0.6483    1.4391 H       1  UNL11       0.0620
     31 H           5.1775    1.3883    0.0633 H       1  UNL11       0.0684
     32 H           3.6930    3.3164   -1.2182 H       1  UNL11       0.4871
     33 H          -0.1652    1.9257   -0.2308 H       1  UNL11       0.0870
     34 H          -1.7148   -1.6313    2.1309 H       1  UNL11       0.1378
     35 H           1.2023    3.7135   -1.4541 H       1  UNL11       0.2358
@<TRIPOS>BOND
     1     1     2    2
     2     1    23    1
     3     1    24    1
     4     2     3    1
     5     2    25    1
     6     3     4    2
     7     3     5    1
     8     5     6    1
     9     6     7    2
    10     6    26    1
    11     7     8    1
    12     7     9    1
    13     9    10    2
    14     9    11   am
    15    11    12    1
    16    11    22    1
    17    12    13    1
    18    12    27    1
    19    12    28    1
    20    13    14   ar
    21    14    15   ar
    22    14    29    1
    23    15    16   ar
    24    15    30    1
    25    16    17   ar
    26    16    31    1
    27    17    18   ar
    28    18    19   ar
    29    18    32    1
    30    19    20   ar
    31    20    21   ar
    32    20    33    1
    33    21    13   ar
    34    21    17   ar
    35    22     5    2
    36    22    34    1
    37    19    35    1
@<TRIPOS>MOLECULE
*****
 35 37 0 0 0
SMALL
GASTEIGER

@<TRIPOS>ATOM
      1 C          -2.8958   -3.7993   -3.4752 C.2     1  UNL11      -0.0951
      2 C          -1.7035   -3.3217   -3.6312 C.2     1  UNL11      -0.0212
      3 C          -0.8758   -2.5012   -2.8229 C.2     1  UNL11       0.1912
      4 O           0.3020   -2.2117   -3.3530 O.2     1  UNL11      -0.2871
      5 C          -1.1496   -1.9548   -1.5179 C.2     1  UNL11       0.0875
      6 C          -2.5084   -1.9350   -1.1240 C.2     1  UNL11       0.0002
      7 C          -2.8125   -1.4662    0.1199 C.2     1  UNL11       0.2376
      8 F          -4.1373   -1.4583    0.4754 F       1  UNL11      -0.1947
      9 C          -1.8290   -1.0234    0.9728 C.2     1  UNL11       0.4436
     10 O          -2.1776   -0.6040    2.1035 O.2     1  UNL11      -0.2114
     11 N          -0.5276   -1.0458    0.5889 N.am    1  UNL11      -0.1308
     12 C           0.4643   -0.5644    1.4391 C.3     1  UNL11       0.1736
     13 C           1.6929    0.0365    1.0193 C.ar    1  UNL11       0.0317
     14 C           2.7670   -0.8595    0.8483 C.ar    1  UNL11      -0.0516
     15 C           3.9984   -0.4080    0.4474 C.ar    1  UNL11      -0.0550
     16 C           4.1949    0.9345    0.2076 C.ar    1  UNL11       0.0125
     17 C           3.1616    1.8324    0.3671 C.ar    1  UNL11       0.2384
     18 N           3.0457    3.1618    0.2151 N.ar    1  UNL11      -0.1241
     19 N           1.8247    3.5291    0.4999 N.ar    1  UNL11      -0.1713
     20 C           1.0727    2.4497    0.8558 C.ar    1  UNL11       0.0742
     21 C           1.9059    1.3622    0.7773 C.ar    1  UNL11       0.0785
     22 C          -0.2334   -1.5105   -0.6410 C.2     1  UNL11       0.1790
     23 H          -3.6025   -3.7181   -2.6952 H       1  UNL11       0.0536
     24 H          -3.3228   -4.4409   -4.3071 H       1  UNL11       0.0536
     25 H          -1.2055   -3.6207   -4.6342 H       1  UNL11       0.0650
     26 H          -3.2920   -2.2897   -1.8141 H       1  UNL11       0.0659
     27 H           0.0219    0.1765    2.2144 H       1  UNL11       0.1079
     28 H           0.7772   -1.3930    2.1872 H       1  UNL11       0.1079
     29 H           2.6217   -1.9068    1.0331 H       1  UNL11       0.0623
     30 H           4.8291   -1.0835    0.3126 H       1  UNL11       0.0620
     31 H           5.1507    1.3228   -0.1089 H       1  UNL11       0.0684
     32 H           3.8641    3.7535   -0.0916 H       1  UNL11       0.4871
     33 H           0.0436    2.4551    1.1381 H       1  UNL11       0.0870
     34 H           0.8055   -1.5307   -0.8664 H       1  UNL11       0.1378
     35 H           1.4942    4.4557    0.4625 H       1  UNL11       0.2358
@<TRIPOS>BOND
     1     1     2    2
     2     1    23    1
     3     1    24    1
     4     2     3    1
     5     2    25    1
     6     3     4    2
     7     3     5    1
     8     5     6    1
     9     6     7    2
    10     6    26    1
    11     7     8    1
    12     7     9    1
    13     9    10    2
    14     9    11   am
    15    11    12    1
    16    11    22    1
    17    12    13    1
    18    12    27    1
    19    12    28    1
    20    13    14   ar
    21    14    15   ar
    22    14    29    1
    23    15    16   ar
    24    15    30    1
    25    16    17   ar
    26    16    31    1
    27    17    18   ar
    28    18    19   ar
    29    18    32    1
    30    19    20   ar
    31    20    21   ar
    32    20    33    1
    33    21    13   ar
    34    21    17   ar
    35    22     5    2
    36    22    34    1
    37    19    35    1
@<TRIPOS>MOLECULE
*****
 35 37 0 0 0
SMALL
GASTEIGER

@<TRIPOS>ATOM
      1 C          -4.4004   -0.6544   -3.2516 C.2     1  UNL11      -0.0951
      2 C          -3.1644   -0.4082   -3.5441 C.2     1  UNL11      -0.0212
      3 C          -1.9830   -0.3241   -2.7638 C.2     1  UNL11       0.1912
      4 O          -0.9943    0.3505   -3.3289 O.2     1  UNL11      -0.2871
      5 C          -1.7268   -0.8737   -1.4566 C.2     1  UNL11       0.0875
      6 C          -2.5456   -1.9597   -1.0666 C.2     1  UNL11       0.0002
      7 C          -2.3125   -2.5407    0.1449 C.2     1  UNL11       0.2376
      8 F          -3.1211   -3.5911    0.4975 F       1  UNL11      -0.1947
      9 C          -1.3097   -2.0874    0.9695 C.2     1  UNL11       0.4436
     10 O          -1.1491   -2.6667    2.0716 O.2     1  UNL11      -0.2114
     11 N          -0.5276   -1.0458    0.5889 N.am    1  UNL11      -0.1308
     12 C           0.4643   -0.5644    1.4391 C.3     1  UNL11       0.1736
     13 C           1.6929    0.0365    1.0193 C.ar    1  UNL11       0.0317
     14 C           1.6340    0.7144   -0.2147 C.ar    1  UNL11      -0.0516
     15 C           2.7452    1.3337   -0.7271 C.ar    1  UNL11      -0.0550
     16 C           3.9353    1.2968   -0.0337 C.ar    1  UNL11       0.0125
     17 C           4.0206    0.6408    1.1754 C.ar    1  UNL11       0.2384
     18 N           5.0096    0.4358    2.0606 N.ar    1  UNL11      -0.1241
     19 N           4.5574   -0.2654    3.0660 N.ar    1  UNL11      -0.1713
     20 C           3.2381   -0.5577    2.8885 C.ar    1  UNL11       0.0742
     21 C           2.8797    0.0103    1.6919 C.ar    1  UNL11       0.0785
     22 C          -0.7625   -0.4763   -0.6093 C.2     1  UNL11       0.1790
     23 H          -4.8915   -0.8671   -2.3416 H       1  UNL11       0.0536
     24 H          -5.1552   -0.6561   -4.0979 H       1  UNL11       0.0536
     25 H          -2.9783   -0.2154   -4.6718 H       1  UNL11       0.0650
     26 H          -3.3493   -2.3164   -1.7321 H       1  UNL11       0.0659
     27 H           0.0219    0.1765    2.2144 H       1  UNL11       0.1079
     28 H           0.7772   -1.3930    2.1872 H       1  UNL11       0.1079
     29 H           0.7105    0.7476   -0.7607 H       1  UNL11       0.0623
     30 H           2.7136    1.8562   -1.6708 H       1  UNL11       0.0620
     31 H           4.8280    1.7735   -0.4082 H       1  UNL11       0.0684
     32 H           5.9806    0.8162    1.8980 H       1  UNL11       0.4871
     33 H           2.6146   -1.1164    3.5502 H       1  UNL11       0.0870
     34 H          -0.0947    0.3122   -0.8597 H       1  UNL11       0.1378
     35 H           5.0944   -0.5437    3.8428 H       1  UNL11       0.2358
@<TRIPOS>BOND
     1     1     2    2
     2     1    23    1
     3     1    24    1
     4     2     3    1
     5     2    25    1
     6     3     4    2
     7     3     5    1
     8     5     6    1
     9     6     7    2
    10     6    26    1
    11     7     8    1
    12     7     9    1
    13     9    10    2
    14     9    11   am
    15    11    12    1
    16    11    22    1
    17    12    13    1
    18    12    27    1
    19    12    28    1
    20    13    14   ar
    21    14    15   ar
    22    14    29    1
    23    15    16   ar
    24    15    30    1
    25    16    17   ar
    26    16    31    1
    27    17    18   ar
    28    18    19   ar
    29    18    32    1
    30    19    20   ar
    31    20    21   ar
    32    20    33    1
    33    21    13   ar
    34    21    17   ar
    35    22     5    2
    36    22    34    1
    37    19    35    1
@<TRIPOS>MOLECULE
*****
 35 37 0 0 0
SMALL
GASTEIGER

@<TRIPOS>ATOM
      1 C          -5.4202   -2.7006   -1.1522 C.2     1  UNL11      -0.0951
      2 C          -5.0543   -2.9447    0.0646 C.2     1  UNL11      -0.0212
      3 C          -3.8424   -2.7366    0.7714 C.2     1  UNL11       0.1912
      4 O          -3.8599   -3.1443    2.0306 O.2     1  UNL11      -0.2871
      5 C          -2.6160   -2.1445    0.3003 C.2     1  UNL11       0.0875
      6 C          -2.4626   -2.0647   -1.1040 C.2     1  UNL11       0.0002
      7 C          -1.3371   -1.4734   -1.5973 C.2     1  UNL11       0.2376
      8 F          -1.2145   -1.4098   -2.9620 F       1  UNL11      -0.1947
      9 C          -0.3738   -0.9665   -0.7570 C.2     1  UNL11       0.4436
     10 O           0.6381   -0.4356   -1.2768 O.2     1  UNL11      -0.2114
     11 N          -0.5276   -1.0458    0.5889 N.am    1  UNL11      -0.1308
     12 C           0.4643   -0.5644    1.4391 C.3     1  UNL11       0.1736
     13 C           1.6929    0.0365    1.0193 C.ar    1  UNL11       0.0317
     14 C           2.1880   -0.4208   -0.2183 C.ar    1  UNL11      -0.0516
     15 C           3.3577    0.0780   -0.7318 C.ar    1  UNL11      -0.0550
     16 C           4.0618    1.0365   -0.0360 C.ar    1  UNL11       0.0125
     17 C           3.6002    1.5012    1.1765 C.ar    1  UNL11       0.2384
     18 N           4.0488    2.4032    2.0648 N.ar    1  UNL11      -0.1241
     19 N           3.2208    2.4723    3.0730 N.ar    1  UNL11      -0.1713
     20 C           2.1791    1.6119    2.8946 C.ar    1  UNL11       0.0742
     21 C           2.4033    0.9858    1.6942 C.ar    1  UNL11       0.0785
     22 C          -1.6419   -1.6306    1.0702 C.2     1  UNL11       0.1790
     23 H          -4.9204   -2.2713   -1.9770 H       1  UNL11       0.0536
     24 H          -6.4766   -2.9808   -1.4543 H       1  UNL11       0.0536
     25 H          -5.8802   -3.4340    0.7140 H       1  UNL11       0.0650
     26 H          -3.2383   -2.4753   -1.7717 H       1  UNL11       0.0659
     27 H           0.0219    0.1765    2.2144 H       1  UNL11       0.1079
     28 H           0.7772   -1.3930    2.1872 H       1  UNL11       0.1079
     29 H           1.6452   -1.1672   -0.7662 H       1  UNL11       0.0623
     30 H           3.7478   -0.2635   -1.6783 H       1  UNL11       0.0620
     31 H           4.9852    1.4498   -0.4115 H       1  UNL11       0.0684
     32 H           4.9450    2.9364    1.9020 H       1  UNL11       0.4871
     33 H           1.3574    1.4596    3.5583 H       1  UNL11       0.0870
     34 H          -1.7148   -1.6313    2.1309 H       1  UNL11       0.1378
     35 H           3.3335    3.0632    3.8523 H       1  UNL11       0.2358
@<TRIPOS>BOND
     1     1     2    2
     2     1    23    1
     3     1    24    1
     4     2     3    1
     5     2    25    1
     6     3     4    2
     7     3     5    1
     8     5     6    1
     9     6     7    2
    10     6    26    1
    11     7     8    1
    12     7     9    1
    13     9    10    2
    14     9    11   am
    15    11    12    1
    16    11    22    1
    17    12    13    1
    18    12    27    1
    19    12    28    1
    20    13    14   ar
    21    14    15   ar
    22    14    29    1
    23    15    16   ar
    24    15    30    1
    25    16    17   ar
    26    16    31    1
    27    17    18   ar
    28    18    19   ar
    29    18    32    1
    30    19    20   ar
    31    20    21   ar
    32    20    33    1
    33    21    13   ar
    34    21    17   ar
    35    22     5    2
    36    22    34    1
    37    19    35    1
@<TRIPOS>MOLECULE
*****
 35 37 0 0 0
SMALL
GASTEIGER

@<TRIPOS>ATOM
      1 C          -6.2744   -3.1477    0.4442 C.2     1  UNL11      -0.0951
      2 C          -5.0543   -2.9447    0.0646 C.2     1  UNL11      -0.0212
      3 C          -3.8424   -2.7366    0.7714 C.2     1  UNL11       0.1912
      4 O          -3.8599   -3.1443    2.0306 O.2     1  UNL11      -0.2871
      5 C          -2.6160   -2.1445    0.3003 C.2     1  UNL11       0.0875
      6 C          -2.4626   -2.0647   -1.1040 C.2     1  UNL11       0.0002
      7 C          -1.3371   -1.4734   -1.5973 C.2     1  UNL11       0.2376
      8 F          -1.2145   -1.4098   -2.9620 F       1  UNL11      -0.1947
      9 C          -0.3738   -0.9665   -0.7570 C.2     1  UNL11       0.4436
     10 O           0.6381   -0.4356   -1.2768 O.2     1  UNL11      -0.2114
     11 N          -0.5276   -1.0458    0.5889 N.am    1  UNL11      -0.1308
     12 C           0.4643   -0.5644    1.4391 C.3     1  UNL11       0.1736
     13 C           1.6929    0.0365    1.0193 C.ar    1  UNL11       0.0317
     14 C           2.2138    1.0059    1.8995 C.ar    1  UNL11      -0.0516
     15 C           3.3872    1.6548    1.6114 C.ar    1  UNL11      -0.0550
     16 C           4.0695    1.3610    0.4508 C.ar    1  UNL11       0.0125
     17 C           3.5823    0.4172   -0.4274 C.ar    1  UNL11       0.2384
     18 N           4.0063   -0.0728   -1.6038 N.ar    1  UNL11      -0.1241
     19 N           3.1602   -0.9710   -2.0331 N.ar    1  UNL11      -0.1713
     20 C           2.1306   -1.1160   -1.1521 C.ar    1  UNL11       0.0742
     21 C           2.3820   -0.2414   -0.1250 C.ar    1  UNL11       0.0785
     22 C          -1.6419   -1.6306    1.0702 C.2     1  UNL11       0.1790
     23 H          -6.7249   -3.2194    1.3963 H       1  UNL11       0.0536
     24 H          -7.0637   -3.2829   -0.3587 H       1  UNL11       0.0536
     25 H          -4.9174   -2.9275   -1.0861 H       1  UNL11       0.0650
     26 H          -3.2383   -2.4753   -1.7717 H       1  UNL11       0.0659
     27 H           0.0219    0.1765    2.2144 H       1  UNL11       0.1079
     28 H           0.7772   -1.3930    2.1872 H       1  UNL11       0.1079
     29 H           1.6881    1.2401    2.8054 H       1  UNL11       0.0623
     30 H           3.7970    2.3990    2.2768 H       1  UNL11       0.0620
     31 H           4.9950    1.8528    0.1940 H       1  UNL11       0.0684
     32 H           4.8997    0.2673   -2.0511 H       1  UNL11       0.4871
     33 H           1.2989   -1.7779   -1.2472 H       1  UNL11       0.0870
     34 H          -1.7148   -1.6313    2.1309 H       1  UNL11       0.1378
     35 H           3.2534   -1.4728   -2.8750 H       1  UNL11       0.2358
@<TRIPOS>BOND
     1     1     2    2
     2     1    23    1
     3     1    24    1
     4     2     3    1
     5     2    25    1
     6     3     4    2
     7     3     5    1
     8     5     6    1
     9     6     7    2
    10     6    26    1
    11     7     8    1
    12     7     9    1
    13     9    10    2
    14     9    11   am
    15    11    12    1
    16    11    22    1
    17    12    13    1
    18    12    27    1
    19    12    28    1
    20    13    14   ar
    21    14    15   ar
    22    14    29    1
    23    15    16   ar
    24    15    30    1
    25    16    17   ar
    26    16    31    1
    27    17    18   ar
    28    18    19   ar
    29    18    32    1
    30    19    20   ar
    31    20    21   ar
    32    20    33    1
    33    21    13   ar
    34    21    17   ar
    35    22     5    2
    36    22    34    1
    37    19    35    1
@<TRIPOS>MOLECULE
*****
 35 37 0 0 0
SMALL
GASTEIGER

@<TRIPOS>ATOM
      1 C          -1.9360   -6.5910    0.5325 C.2     1  UNL11      -0.0951
      2 C          -1.8618   -5.3032    0.6330 C.2     1  UNL11      -0.0212
      3 C          -2.2665   -4.2410   -0.2152 C.2     1  UNL11       0.1912
      4 O          -3.1784   -4.5701   -1.1165 O.2     1  UNL11      -0.2871
      5 C          -1.8155   -2.8724   -0.2214 C.2     1  UNL11       0.0875
      6 C          -2.4479   -2.0129   -1.1506 C.2     1  UNL11       0.0002
      7 C          -2.0844   -0.6986   -1.1641 C.2     1  UNL11       0.2376
      8 F          -2.7134    0.1118   -2.0749 F       1  UNL11      -0.1947
      9 C          -1.1296   -0.2160   -0.3002 C.2     1  UNL11       0.4436
     10 O          -0.8415    1.0040   -0.3658 O.2     1  UNL11      -0.2114
     11 N          -0.5276   -1.0458    0.5889 N.am    1  UNL11      -0.1308
     12 C           0.4643   -0.5644    1.4391 C.3     1  UNL11       0.1736
     13 C           1.6929    0.0365    1.0193 C.ar    1  UNL11       0.0317
     14 C           2.5501    0.4340    2.0648 C.ar    1  UNL11      -0.0516
     15 C           3.7590    1.0220    1.7938 C.ar    1  UNL11      -0.0550
     16 C           4.1464    1.2297    0.4879 C.ar    1  UNL11       0.0125
     17 C           3.3273    0.8504   -0.5536 C.ar    1  UNL11       0.2384
     18 N           3.4233    0.9180   -1.8915 N.ar    1  UNL11      -0.1241
     19 N           2.3492    0.4080   -2.4327 N.ar    1  UNL11      -0.1713
     20 C           1.4879   -0.0232   -1.4685 C.ar    1  UNL11       0.0742
     21 C           2.0930    0.2499   -0.2675 C.ar    1  UNL11       0.0785
     22 C          -0.8913   -2.3431    0.5979 C.2     1  UNL11       0.1790
     23 H          -2.3234   -7.2292   -0.2140 H       1  UNL11       0.0536
     24 H          -1.5192   -7.2140    1.3834 H       1  UNL11       0.0536
     25 H          -1.3633   -4.9368    1.6130 H       1  UNL11       0.0650
     26 H          -3.2112   -2.4073   -1.8418 H       1  UNL11       0.0659
     27 H           0.0219    0.1765    2.2144 H       1  UNL11       0.1079
     28 H           0.7772   -1.3930    2.1872 H       1  UNL11       0.1079
     29 H           2.2553    0.2756    3.0846 H       1  UNL11       0.0623
     30 H           4.4247    1.3310    2.5850 H       1  UNL11       0.0620
     31 H           5.0905    1.6894    0.2399 H       1  UNL11       0.0684
     32 H           4.2714    1.3350   -2.3614 H       1  UNL11       0.4871
     33 H           0.5359   -0.4802   -1.6224 H       1  UNL11       0.0870
     34 H          -0.4052   -2.9307    1.3388 H       1  UNL11       0.1378
     35 H           2.1850    0.3440   -3.4013 H       1  UNL11       0.2358
@<TRIPOS>BOND
     1     1     2    2
     2     1    23    1
     3     1    24    1
     4     2     3    1
     5     2    25    1
     6     3     4    2
     7     3     5    1
     8     5     6    1
     9     6     7    2
    10     6    26    1
    11     7     8    1
    12     7     9    1
    13     9    10    2
    14     9    11   am
    15    11    12    1
    16    11    22    1
    17    12    13    1
    18    12    27    1
    19    12    28    1
    20    13    14   ar
    21    14    15   ar
    22    14    29    1
    23    15    16   ar
    24    15    30    1
    25    16    17   ar
    26    16    31    1
    27    17    18   ar
    28    18    19   ar
    29    18    32    1
    30    19    20   ar
    31    20    21   ar
    32    20    33    1
    33    21    13   ar
    34    21    17   ar
    35    22     5    2
    36    22    34    1
    37    19    35    1
@<TRIPOS>MOLECULE
*****
 35 37 0 0 0
SMALL
GASTEIGER

@<TRIPOS>ATOM
      1 C          -4.3266   -1.3472    3.0247 C.2     1  UNL11      -0.0951
      2 C          -4.8116   -1.4829    1.8329 C.2     1  UNL11      -0.0212
      3 C          -4.2147   -1.5780    0.5498 C.2     1  UNL11       0.1912
      4 O          -5.0725   -1.6975   -0.4512 O.2     1  UNL11      -0.2871
      5 C          -2.8158   -1.5641    0.2047 C.2     1  UNL11       0.0875
      6 C          -2.4854   -2.0685   -1.0753 C.2     1  UNL11       0.0002
      7 C          -1.1785   -2.0365   -1.4635 C.2     1  UNL11       0.2376
      8 F          -0.8868   -2.5320   -2.7089 F       1  UNL11      -0.1947
      9 C          -0.2037   -1.5287   -0.6372 C.2     1  UNL11       0.4436
     10 O           0.9798   -1.5295   -1.0560 O.2     1  UNL11      -0.2114
     11 N          -0.5276   -1.0458    0.5889 N.am    1  UNL11      -0.1308
     12 C           0.4643   -0.5644    1.4391 C.3     1  UNL11       0.1736
     13 C           1.6929    0.0365    1.0193 C.ar    1  UNL11       0.0317
     14 C           2.7798   -0.1538    1.8958 C.ar    1  UNL11      -0.0516
     15 C           4.0129    0.3719    1.6065 C.ar    1  UNL11      -0.0550
     16 C           4.1987    1.0951    0.4484 C.ar    1  UNL11       0.0125
     17 C           3.1528    1.2962   -0.4263 C.ar    1  UNL11       0.2384
     18 N           3.0247    1.9370   -1.5996 N.ar    1  UNL11      -0.1241
     19 N           1.7948    1.8258   -2.0259 N.ar    1  UNL11      -0.1713
     20 C           1.0487    1.1003   -1.1459 C.ar    1  UNL11       0.0742
     21 C           1.8954    0.7551   -0.1227 C.ar    1  UNL11       0.0785
     22 C          -1.8204   -1.0796    0.9665 C.2     1  UNL11       0.1790
     23 H          -3.3395   -1.2692    3.3908 H       1  UNL11       0.0536
     24 H          -5.0563   -1.2955    3.8912 H       1  UNL11       0.0536
     25 H          -5.9689   -1.5374    1.8005 H       1  UNL11       0.0650
     26 H          -3.2722   -2.4763   -1.7316 H       1  UNL11       0.0659
     27 H           0.0219    0.1765    2.2144 H       1  UNL11       0.1079
     28 H           0.7772   -1.3930    2.1872 H       1  UNL11       0.1079
     29 H           2.6429   -0.7159    2.7999 H       1  UNL11       0.0623
     30 H           4.8535    0.2335    2.2690 H       1  UNL11       0.0620
     31 H           5.1555    1.5221    0.1906 H       1  UNL11       0.0684
     32 H           3.8417    2.4332   -2.0471 H       1  UNL11       0.4871
     33 H           0.0146    0.8537   -1.2390 H       1  UNL11       0.0870
     34 H          -2.0099   -0.6574    1.9238 H       1  UNL11       0.1378
     35 H           1.4546    2.2119   -2.8653 H       1  UNL11       0.2358
@<TRIPOS>BOND
     1     1     2    2
     2     1    23    1
     3     1    24    1
     4     2     3    1
     5     2    25    1
     6     3     4    2
     7     3     5    1
     8     5     6    1
     9     6     7    2
    10     6    26    1
    11     7     8    1
    12     7     9    1
    13     9    10    2
    14     9    11   am
    15    11    12    1
    16    11    22    1
    17    12    13    1
    18    12    27    1
    19    12    28    1
    20    13    14   ar
    21    14    15   ar
    22    14    29    1
    23    15    16   ar
    24    15    30    1
    25    16    17   ar
    26    16    31    1
    27    17    18   ar
    28    18    19   ar
    29    18    32    1
    30    19    20   ar
    31    20    21   ar
    32    20    33    1
    33    21    13   ar
    34    21    17   ar
    35    22     5    2
    36    22    34    1
    37    19    35    1
@<TRIPOS>MOLECULE
*****
 35 37 0 0 0
SMALL
GASTEIGER

@<TRIPOS>ATOM
      1 C          -3.1983    2.3817   -3.1825 C.2     1  UNL11      -0.0951
      2 C          -2.6391    1.5651   -2.3492 C.2     1  UNL11      -0.0212
      3 C          -2.8483    0.1950   -2.0483 C.2     1  UNL11       0.1912
      4 O          -3.8070   -0.3855   -2.7526 O.2     1  UNL11      -0.2871
      5 C          -2.1623   -0.6301   -1.0865 C.2     1  UNL11       0.0875
      6 C          -2.5464   -1.9914   -1.0478 C.2     1  UNL11       0.0002
      7 C          -1.8953   -2.8209   -0.1831 C.2     1  UNL11       0.2376
      8 F          -2.2880   -4.1351   -0.1665 F       1  UNL11      -0.1947
      9 C          -0.8915   -2.3524    0.6316 C.2     1  UNL11       0.4436
     10 O          -0.3337   -3.1691    1.4047 O.2     1  UNL11      -0.2114
     11 N          -0.5276   -1.0458    0.5889 N.am    1  UNL11      -0.1308
     12 C           0.4643   -0.5644    1.4391 C.3     1  UNL11       0.1736
     13 C           1.6929    0.0365    1.0193 C.ar    1  UNL11       0.0317
     14 C           2.7798   -0.1538    1.8958 C.ar    1  UNL11      -0.0516
     15 C           4.0129    0.3719    1.6065 C.ar    1  UNL11      -0.0550
     16 C           4.1987    1.0951    0.4484 C.ar    1  UNL11       0.0125
     17 C           3.1528    1.2962   -0.4263 C.ar    1  UNL11       0.2384
     18 N           3.0247    1.9370   -1.5996 N.ar    1  UNL11      -0.1241
     19 N           1.7948    1.8258   -2.0259 N.ar    1  UNL11      -0.1713
     20 C           1.0487    1.1003   -1.1459 C.ar    1  UNL11       0.0742
     21 C           1.8954    0.7551   -0.1227 C.ar    1  UNL11       0.0785
     22 C          -1.1742   -0.2314   -0.2677 C.2     1  UNL11       0.1790
     23 H          -3.9766    2.2642   -3.8861 H       1  UNL11       0.0536
     24 H          -2.8219    3.4511   -3.2102 H       1  UNL11       0.0536
     25 H          -1.7952    2.0452   -1.7162 H       1  UNL11       0.0650
     26 H          -3.3538   -2.3595   -1.7026 H       1  UNL11       0.0659
     27 H           0.0219    0.1765    2.2144 H       1  UNL11       0.1079
     28 H           0.7772   -1.3930    2.1872 H       1  UNL11       0.1079
     29 H           2.6429   -0.7159    2.7999 H       1  UNL11       0.0623
     30 H           4.8535    0.2335    2.2690 H       1  UNL11       0.0620
     31 H           5.1555    1.5221    0.1906 H       1  UNL11       0.0684
     32 H           3.8417    2.4332   -2.0471 H       1  UNL11       0.4871
     33 H           0.0146    0.8537   -1.2390 H       1  UNL11       0.0870
     34 H          -0.8193    0.7709   -0.2740 H       1  UNL11       0.1378
     35 H           1.4546    2.2119   -2.8653 H       1  UNL11       0.2358
@<TRIPOS>BOND
     1     1     2    2
     2     1    23    1
     3     1    24    1
     4     2     3    1
     5     2    25    1
     6     3     4    2
     7     3     5    1
     8     5     6    1
     9     6     7    2
    10     6    26    1
    11     7     8    1
    12     7     9    1
    13     9    10    2
    14     9    11   am
    15    11    12    1
    16    11    22    1
    17    12    13    1
    18    12    27    1
    19    12    28    1
    20    13    14   ar
    21    14    15   ar
    22    14    29    1
    23    15    16   ar
    24    15    30    1
    25    16    17   ar
    26    16    31    1
    27    17    18   ar
    28    18    19   ar
    29    18    32    1
    30    19    20   ar
    31    20    21   ar
    32    20    33    1
    33    21    13   ar
    34    21    17   ar
    35    22     5    2
    36    22    34    1
    37    19    35    1
@<TRIPOS>MOLECULE
*****
 35 37 0 0 0
SMALL
GASTEIGER

@<TRIPOS>ATOM
      1 C          -5.7783    1.3158    0.3104 C.2     1  UNL11      -0.0951
      2 C          -4.6057    0.7695    0.2840 C.2     1  UNL11      -0.0212
      3 C          -4.1364   -0.4949   -0.1549 C.2     1  UNL11       0.1912
      4 O          -5.0732   -1.2943   -0.6399 O.2     1  UNL11      -0.2871
      5 C          -2.7912   -1.0114   -0.1368 C.2     1  UNL11       0.0875
      6 C          -2.5124   -2.0538   -1.0520 C.2     1  UNL11       0.0002
      7 C          -1.2416   -2.5459   -1.1015 C.2     1  UNL11       0.2376
      8 F          -0.9996   -3.5558   -1.9976 F       1  UNL11      -0.1947
      9 C          -0.2535   -2.0461   -0.2861 C.2     1  UNL11       0.4436
     10 O           0.8947   -2.5445   -0.3821 O.2     1  UNL11      -0.2114
     11 N          -0.5276   -1.0458    0.5889 N.am    1  UNL11      -0.1308
     12 C           0.4643   -0.5644    1.4391 C.3     1  UNL11       0.1736
     13 C           1.6929    0.0365    1.0193 C.ar    1  UNL11       0.0317
     14 C           1.5511    1.2088    0.2502 C.ar    1  UNL11      -0.0516
     15 C           2.6537    1.8803   -0.2125 C.ar    1  UNL11      -0.0550
     16 C           3.9168    1.4096    0.0735 C.ar    1  UNL11       0.0125
     17 C           4.0839    0.2655    0.8235 C.ar    1  UNL11       0.2384
     18 N           5.1539   -0.4217    1.2555 N.ar    1  UNL11      -0.1241
     19 N           4.7579   -1.4582    1.9452 N.ar    1  UNL11      -0.1713
     20 C           3.3968   -1.5028    2.0002 C.ar    1  UNL11       0.0742
     21 C           2.9511   -0.4147    1.2926 C.ar    1  UNL11       0.0785
     22 C          -1.7848   -0.5635    0.6327 C.2     1  UNL11       0.1790
     23 H          -6.7320    0.9775    0.0094 H       1  UNL11       0.0536
     24 H          -5.8643    2.3662    0.7287 H       1  UNL11       0.0536
     25 H          -3.7633    1.4456    0.7040 H       1  UNL11       0.0650
     26 H          -3.3104   -2.4511   -1.7013 H       1  UNL11       0.0659
     27 H           0.0219    0.1765    2.2144 H       1  UNL11       0.1079
     28 H           0.7772   -1.3930    2.1872 H       1  UNL11       0.1079
     29 H           0.5705    1.5816    0.0233 H       1  UNL11       0.0623
     30 H           2.5590    2.7790   -0.8023 H       1  UNL11       0.0620
     31 H           4.8050    1.9136   -0.2749 H       1  UNL11       0.0684
     32 H           6.1362   -0.1081    1.0306 H       1  UNL11       0.4871
     33 H           2.8027   -2.2382    2.4952 H       1  UNL11       0.0870
     34 H          -1.9241    0.2393    1.3159 H       1  UNL11       0.1378
     35 H           5.3584   -2.1151    2.3661 H       1  UNL11       0.2358
@<TRIPOS>BOND
     1     1     2    2
     2     1    23    1
     3     1    24    1
     4     2     3    1
     5     2    25    1
     6     3     4    2
     7     3     5    1
     8     5     6    1
     9     6     7    2
    10     6    26    1
    11     7     8    1
    12     7     9    1
    13     9    10    2
    14     9    11   am
    15    11    12    1
    16    11    22    1
    17    12    13    1
    18    12    27    1
    19    12    28    1
    20    13    14   ar
    21    14    15   ar
    22    14    29    1
    23    15    16   ar
    24    15    30    1
    25    16    17   ar
    26    16    31    1
    27    17    18   ar
    28    18    19   ar
    29    18    32    1
    30    19    20   ar
    31    20    21   ar
    32    20    33    1
    33    21    13   ar
    34    21    17   ar
    35    22     5    2
    36    22    34    1
    37    19    35    1
@<TRIPOS>MOLECULE
*****
 35 37 0 0 0
SMALL
GASTEIGER

@<TRIPOS>ATOM
      1 C           1.5001   -3.2395   -2.7873 C.2     1  UNL11      -0.0951
      2 C           0.3349   -3.0507   -3.3170 C.2     1  UNL11      -0.0212
      3 C          -0.8758   -2.5012   -2.8229 C.2     1  UNL11       0.1912
      4 O          -1.8750   -2.4957   -3.6909 O.2     1  UNL11      -0.2871
      5 C          -1.1496   -1.9548   -1.5179 C.2     1  UNL11       0.0875
      6 C          -2.5084   -1.9350   -1.1240 C.2     1  UNL11       0.0002
      7 C          -2.8125   -1.4662    0.1199 C.2     1  UNL11       0.2376
      8 F          -4.1373   -1.4583    0.4754 F       1  UNL11      -0.1947
      9 C          -1.8290   -1.0234    0.9728 C.2     1  UNL11       0.4436
     10 O          -2.1776   -0.6040    2.1035 O.2     1  UNL11      -0.2114
     11 N          -0.5276   -1.0458    0.5889 N.am    1  UNL11      -0.1308
     12 C           0.4643   -0.5644    1.4391 C.3     1  UNL11       0.1736
     13 C           1.6929    0.0365    1.0193 C.ar    1  UNL11       0.0317
     14 C           2.7670   -0.8595    0.8483 C.ar    1  UNL11      -0.0516
     15 C           3.9984   -0.4080    0.4474 C.ar    1  UNL11      -0.0550
     16 C           4.1949    0.9345    0.2076 C.ar    1  UNL11       0.0125
     17 C           3.1616    1.8324    0.3671 C.ar    1  UNL11       0.2384
     18 N           3.0457    3.1618    0.2151 N.ar    1  UNL11      -0.1241
     19 N           1.8247    3.5291    0.4999 N.ar    1  UNL11      -0.1713
     20 C           1.0727    2.4497    0.8558 C.ar    1  UNL11       0.0742
     21 C           1.9059    1.3622    0.7773 C.ar    1  UNL11       0.0785
     22 C          -0.2334   -1.5105   -0.6410 C.2     1  UNL11       0.1790
     23 H           1.8912   -3.0364   -1.8279 H       1  UNL11       0.0536
     24 H           2.3043   -3.7138   -3.4308 H       1  UNL11       0.0536
     25 H           0.2580   -3.4007   -4.4192 H       1  UNL11       0.0650
     26 H          -3.2920   -2.2897   -1.8141 H       1  UNL11       0.0659
     27 H           0.0219    0.1765    2.2144 H       1  UNL11       0.1079
     28 H           0.7772   -1.3930    2.1872 H       1  UNL11       0.1079
     29 H           2.6217   -1.9068    1.0331 H       1  UNL11       0.0623
     30 H           4.8291   -1.0835    0.3126 H       1  UNL11       0.0620
     31 H           5.1507    1.3228   -0.1089 H       1  UNL11       0.0684
     32 H           3.8641    3.7535   -0.0916 H       1  UNL11       0.4871
     33 H           0.0436    2.4551    1.1381 H       1  UNL11       0.0870
     34 H           0.8055   -1.5307   -0.8664 H       1  UNL11       0.1378
     35 H           1.4942    4.4557    0.4625 H       1  UNL11       0.2358
@<TRIPOS>BOND
     1     1     2    2
     2     1    23    1
     3     1    24    1
     4     2     3    1
     5     2    25    1
     6     3     4    2
     7     3     5    1
     8     5     6    1
     9     6     7    2
    10     6    26    1
    11     7     8    1
    12     7     9    1
    13     9    10    2
    14     9    11   am
    15    11    12    1
    16    11    22    1
    17    12    13    1
    18    12    27    1
    19    12    28    1
    20    13    14   ar
    21    14    15   ar
    22    14    29    1
    23    15    16   ar
    24    15    30    1
    25    16    17   ar
    26    16    31    1
    27    17    18   ar
    28    18    19   ar
    29    18    32    1
    30    19    20   ar
    31    20    21   ar
    32    20    33    1
    33    21    13   ar
    34    21    17   ar
    35    22     5    2
    36    22    34    1
    37    19    35    1
@<TRIPOS>MOLECULE
*****
 35 37 0 0 0
SMALL
GASTEIGER

@<TRIPOS>ATOM
      1 C          -5.4202   -2.7006   -1.1522 C.2     1  UNL11      -0.0951
      2 C          -5.0543   -2.9447    0.0646 C.2     1  UNL11      -0.0212
      3 C          -3.8424   -2.7366    0.7714 C.2     1  UNL11       0.1912
      4 O          -3.8599   -3.1443    2.0306 O.2     1  UNL11      -0.2871
      5 C          -2.6160   -2.1445    0.3003 C.2     1  UNL11       0.0875
      6 C          -2.4626   -2.0647   -1.1040 C.2     1  UNL11       0.0002
      7 C          -1.3371   -1.4734   -1.5973 C.2     1  UNL11       0.2376
      8 F          -1.2145   -1.4098   -2.9620 F       1  UNL11      -0.1947
      9 C          -0.3738   -0.9665   -0.7570 C.2     1  UNL11       0.4436
     10 O           0.6381   -0.4356   -1.2768 O.2     1  UNL11      -0.2114
     11 N          -0.5276   -1.0458    0.5889 N.am    1  UNL11      -0.1308
     12 C           0.4643   -0.5644    1.4391 C.3     1  UNL11       0.1736
     13 C           1.6929    0.0365    1.0193 C.ar    1  UNL11       0.0317
     14 C           1.6340    0.7144   -0.2147 C.ar    1  UNL11      -0.0516
     15 C           2.7452    1.3337   -0.7271 C.ar    1  UNL11      -0.0550
     16 C           3.9353    1.2968   -0.0337 C.ar    1  UNL11       0.0125
     17 C           4.0206    0.6408    1.1754 C.ar    1  UNL11       0.2384
     18 N           5.0096    0.4358    2.0606 N.ar    1  UNL11      -0.1241
     19 N           4.5574   -0.2654    3.0660 N.ar    1  UNL11      -0.1713
     20 C           3.2381   -0.5577    2.8885 C.ar    1  UNL11       0.0742
     21 C           2.8797    0.0103    1.6919 C.ar    1  UNL11       0.0785
     22 C          -1.6419   -1.6306    1.0702 C.2     1  UNL11       0.1790
     23 H          -4.9204   -2.2713   -1.9770 H       1  UNL11       0.0536
     24 H          -6.4766   -2.9808   -1.4543 H       1  UNL11       0.0536
     25 H          -5.8802   -3.4340    0.7140 H       1  UNL11       0.0650
     26 H          -3.2383   -2.4753   -1.7717 H       1  UNL11       0.0659
     27 H           0.0219    0.1765    2.2144 H       1  UNL11       0.1079
     28 H           0.7772   -1.3930    2.1872 H       1  UNL11       0.1079
     29 H           0.7105    0.7476   -0.7607 H       1  UNL11       0.0623
     30 H           2.7136    1.8562   -1.6708 H       1  UNL11       0.0620
     31 H           4.8280    1.7735   -0.4082 H       1  UNL11       0.0684
     32 H           5.9806    0.8162    1.8980 H       1  UNL11       0.4871
     33 H           2.6146   -1.1164    3.5502 H       1  UNL11       0.0870
     34 H          -1.7148   -1.6313    2.1309 H       1  UNL11       0.1378
     35 H           5.0944   -0.5437    3.8428 H       1  UNL11       0.2358
@<TRIPOS>BOND
     1     1     2    2
     2     1    23    1
     3     1    24    1
     4     2     3    1
     5     2    25    1
     6     3     4    2
     7     3     5    1
     8     5     6    1
     9     6     7    2
    10     6    26    1
    11     7     8    1
    12     7     9    1
    13     9    10    2
    14     9    11   am
    15    11    12    1
    16    11    22    1
    17    12    13    1
    18    12    27    1
    19    12    28    1
    20    13    14   ar
    21    14    15   ar
    22    14    29    1
    23    15    16   ar
    24    15    30    1
    25    16    17   ar
    26    16    31    1
    27    17    18   ar
    28    18    19   ar
    29    18    32    1
    30    19    20   ar
    31    20    21   ar
    32    20    33    1
    33    21    13   ar
    34    21    17   ar
    35    22     5    2
    36    22    34    1
    37    19    35    1
@<TRIPOS>MOLECULE
*****
 35 37 0 0 0
SMALL
GASTEIGER

@<TRIPOS>ATOM
      1 C          -3.9665   -4.4251   -2.0228 C.2     1  UNL11      -0.0951
      2 C          -3.2355   -4.8582   -1.0470 C.2     1  UNL11      -0.0212
      3 C          -2.2665   -4.2410   -0.2152 C.2     1  UNL11       0.1912
      4 O          -1.7160   -5.0439    0.6816 O.2     1  UNL11      -0.2871
      5 C          -1.8155   -2.8724   -0.2214 C.2     1  UNL11       0.0875
      6 C          -2.4479   -2.0129   -1.1506 C.2     1  UNL11       0.0002
      7 C          -2.0844   -0.6986   -1.1641 C.2     1  UNL11       0.2376
      8 F          -2.7134    0.1118   -2.0749 F       1  UNL11      -0.1947
      9 C          -1.1296   -0.2160   -0.3002 C.2     1  UNL11       0.4436
     10 O          -0.8415    1.0040   -0.3658 O.2     1  UNL11      -0.2114
     11 N          -0.5276   -1.0458    0.5889 N.am    1  UNL11      -0.1308
     12 C           0.4643   -0.5644    1.4391 C.3     1  UNL11       0.1736
     13 C           1.6929    0.0365    1.0193 C.ar    1  UNL11       0.0317
     14 C           2.2138    1.0059    1.8995 C.ar    1  UNL11      -0.0516
     15 C           3.3872    1.6548    1.6114 C.ar    1  UNL11      -0.0550
     16 C           4.0695    1.3610    0.4508 C.ar    1  UNL11       0.0125
     17 C           3.5823    0.4172   -0.4274 C.ar    1  UNL11       0.2384
     18 N           4.0063   -0.0728   -1.6038 N.ar    1  UNL11      -0.1241
     19 N           3.1602   -0.9710   -2.0331 N.ar    1  UNL11      -0.1713
     20 C           2.1306   -1.1160   -1.1521 C.ar    1  UNL11       0.0742
     21 C           2.3820   -0.2414   -0.1250 C.ar    1  UNL11       0.0785
     22 C          -0.8913   -2.3431    0.5979 C.2     1  UNL11       0.1790
     23 H          -4.0559   -3.4802   -2.4850 H       1  UNL11       0.0536
     24 H          -4.6724   -5.1586   -2.5223 H       1  UNL11       0.0536
     25 H          -3.4008   -5.9779   -0.7977 H       1  UNL11       0.0650
     26 H          -3.2112   -2.4073   -1.8418 H       1  UNL11       0.0659
     27 H           0.0219    0.1765    2.2144 H       1  UNL11       0.1079
     28 H           0.7772   -1.3930    2.1872 H       1  UNL11       0.1079
     29 H           1.6881    1.2401    2.8054 H       1  UNL11       0.0623
     30 H           3.7970    2.3990    2.2768 H       1  UNL11       0.0620
     31 H           4.9950    1.8528    0.1940 H       1  UNL11       0.0684
     32 H           4.8997    0.2673   -2.0511 H       1  UNL11       0.4871
     33 H           1.2989   -1.7779   -1.2472 H       1  UNL11       0.0870
     34 H          -0.4052   -2.9307    1.3388 H       1  UNL11       0.1378
     35 H           3.2534   -1.4728   -2.8750 H       1  UNL11       0.2358
@<TRIPOS>BOND
     1     1     2    2
     2     1    23    1
     3     1    24    1
     4     2     3    1
     5     2    25    1
     6     3     4    2
     7     3     5    1
     8     5     6    1
     9     6     7    2
    10     6    26    1
    11     7     8    1
    12     7     9    1
    13     9    10    2
    14     9    11   am
    15    11    12    1
    16    11    22    1
    17    12    13    1
    18    12    27    1
    19    12    28    1
    20    13    14   ar
    21    14    15   ar
    22    14    29    1
    23    15    16   ar
    24    15    30    1
    25    16    17   ar
    26    16    31    1
    27    17    18   ar
    28    18    19   ar
    29    18    32    1
    30    19    20   ar
    31    20    21   ar
    32    20    33    1
    33    21    13   ar
    34    21    17   ar
    35    22     5    2
    36    22    34    1
    37    19    35    1
@<TRIPOS>MOLECULE
*****
 35 37 0 0 0
SMALL
GASTEIGER

@<TRIPOS>ATOM
      1 C          -4.4062   -0.8282    2.9146 C.2     1  UNL11      -0.0951
      2 C          -4.8421   -1.0915    1.7252 C.2     1  UNL11      -0.0212
      3 C          -4.2147   -1.5780    0.5498 C.2     1  UNL11       0.1912
      4 O          -5.0397   -2.1151   -0.3351 O.2     1  UNL11      -0.2871
      5 C          -2.8158   -1.5641    0.2047 C.2     1  UNL11       0.0875
      6 C          -2.4854   -2.0685   -1.0753 C.2     1  UNL11       0.0002
      7 C          -1.1785   -2.0365   -1.4635 C.2     1  UNL11       0.2376
      8 F          -0.8868   -2.5320   -2.7089 F       1  UNL11      -0.1947
      9 C          -0.2037   -1.5287   -0.6372 C.2     1  UNL11       0.4436
     10 O           0.9798   -1.5295   -1.0560 O.2     1  UNL11      -0.2114
     11 N          -0.5276   -1.0458    0.5889 N.am    1  UNL11      -0.1308
     12 C           0.4643   -0.5644    1.4391 C.3     1  UNL11       0.1736
     13 C           1.6929    0.0365    1.0193 C.ar    1  UNL11       0.0317
     14 C           2.7670   -0.8595    0.8483 C.ar    1  UNL11      -0.0516
     15 C           3.9984   -0.4080    0.4474 C.ar    1  UNL11      -0.0550
     16 C           4.1949    0.9345    0.2076 C.ar    1  UNL11       0.0125
     17 C           3.1616    1.8324    0.3671 C.ar    1  UNL11       0.2384
     18 N           3.0457    3.1618    0.2151 N.ar    1  UNL11      -0.1241
     19 N           1.8247    3.5291    0.4999 N.ar    1  UNL11      -0.1713
     20 C           1.0727    2.4497    0.8558 C.ar    1  UNL11       0.0742
     21 C           1.9059    1.3622    0.7773 C.ar    1  UNL11       0.0785
     22 C          -1.8204   -1.0796    0.9665 C.2     1  UNL11       0.1790
     23 H          -3.4514   -0.9010    3.3590 H       1  UNL11       0.0536
     24 H          -5.1494   -0.4381    3.6771 H       1  UNL11       0.0536
     25 H          -5.9748   -0.8900    1.5850 H       1  UNL11       0.0650
     26 H          -3.2722   -2.4763   -1.7316 H       1  UNL11       0.0659
     27 H           0.0219    0.1765    2.2144 H       1  UNL11       0.1079
     28 H           0.7772   -1.3930    2.1872 H       1  UNL11       0.1079
     29 H           2.6217   -1.9068    1.0331 H       1  UNL11       0.0623
     30 H           4.8291   -1.0835    0.3126 H       1  UNL11       0.0620
     31 H           5.1507    1.3228   -0.1089 H       1  UNL11       0.0684
     32 H           3.8641    3.7535   -0.0916 H       1  UNL11       0.4871
     33 H           0.0436    2.4551    1.1381 H       1  UNL11       0.0870
     34 H          -2.0099   -0.6574    1.9238 H       1  UNL11       0.1378
     35 H           1.4942    4.4557    0.4625 H       1  UNL11       0.2358
@<TRIPOS>BOND
     1     1     2    2
     2     1    23    1
     3     1    24    1
     4     2     3    1
     5     2    25    1
     6     3     4    2
     7     3     5    1
     8     5     6    1
     9     6     7    2
    10     6    26    1
    11     7     8    1
    12     7     9    1
    13     9    10    2
    14     9    11   am
    15    11    12    1
    16    11    22    1
    17    12    13    1
    18    12    27    1
    19    12    28    1
    20    13    14   ar
    21    14    15   ar
    22    14    29    1
    23    15    16   ar
    24    15    30    1
    25    16    17   ar
    26    16    31    1
    27    17    18   ar
    28    18    19   ar
    29    18    32    1
    30    19    20   ar
    31    20    21   ar
    32    20    33    1
    33    21    13   ar
    34    21    17   ar
    35    22     5    2
    36    22    34    1
    37    19    35    1
@<TRIPOS>MOLECULE
*****
 35 37 0 0 0
SMALL
GASTEIGER

@<TRIPOS>ATOM
      1 C          -3.1706   -4.2040   -3.0532 C.2     1  UNL11      -0.0951
      2 C          -1.9071   -4.3459   -2.8137 C.2     1  UNL11      -0.0212
      3 C          -0.9507   -3.5362   -2.1495 C.2     1  UNL11       0.1912
      4 O           0.3085   -3.7993   -2.4616 O.2     1  UNL11      -0.2871
      5 C          -1.1730   -2.4829   -1.1916 C.2     1  UNL11       0.0875
      6 C          -2.4826   -1.9491   -1.1462 C.2     1  UNL11       0.0002
      7 C          -2.7523   -0.9795   -0.2259 C.2     1  UNL11       0.2376
      8 F          -4.0296   -0.4800   -0.2042 F       1  UNL11      -0.1947
      9 C          -1.7814   -0.5289    0.6373 C.2     1  UNL11       0.4436
     10 O          -2.0963    0.3659    1.4595 O.2     1  UNL11      -0.2114
     11 N          -0.5276   -1.0458    0.5889 N.am    1  UNL11      -0.1308
     12 C           0.4643   -0.5644    1.4391 C.3     1  UNL11       0.1736
     13 C           1.6929    0.0365    1.0193 C.ar    1  UNL11       0.0317
     14 C           2.1880   -0.4208   -0.2183 C.ar    1  UNL11      -0.0516
     15 C           3.3577    0.0780   -0.7318 C.ar    1  UNL11      -0.0550
     16 C           4.0618    1.0365   -0.0360 C.ar    1  UNL11       0.0125
     17 C           3.6002    1.5012    1.1765 C.ar    1  UNL11       0.2384
     18 N           4.0488    2.4032    2.0648 N.ar    1  UNL11      -0.1241
     19 N           3.2208    2.4723    3.0730 N.ar    1  UNL11      -0.1713
     20 C           2.1791    1.6119    2.8946 C.ar    1  UNL11       0.0742
     21 C           2.4033    0.9858    1.6942 C.ar    1  UNL11       0.0785
     22 C          -0.2674   -2.0038   -0.3220 C.2     1  UNL11       0.1790
     23 H          -3.8614   -3.4403   -2.8208 H       1  UNL11       0.0536
     24 H          -3.6983   -5.0306   -3.6225 H       1  UNL11       0.0536
     25 H          -1.4596   -5.3333   -3.2238 H       1  UNL11       0.0650
     26 H          -3.2555   -2.3137   -1.8431 H       1  UNL11       0.0659
     27 H           0.0219    0.1765    2.2144 H       1  UNL11       0.1079
     28 H           0.7772   -1.3930    2.1872 H       1  UNL11       0.1079
     29 H           1.6452   -1.1672   -0.7662 H       1  UNL11       0.0623
     30 H           3.7478   -0.2635   -1.6783 H       1  UNL11       0.0620
     31 H           4.9852    1.4498   -0.4115 H       1  UNL11       0.0684
     32 H           4.9450    2.9364    1.9020 H       1  UNL11       0.4871
     33 H           1.3574    1.4596    3.5583 H       1  UNL11       0.0870
     34 H           0.7234   -2.3876   -0.2855 H       1  UNL11       0.1378
     35 H           3.3335    3.0632    3.8523 H       1  UNL11       0.2358
@<TRIPOS>BOND
     1     1     2    2
     2     1    23    1
     3     1    24    1
     4     2     3    1
     5     2    25    1
     6     3     4    2
     7     3     5    1
     8     5     6    1
     9     6     7    2
    10     6    26    1
    11     7     8    1
    12     7     9    1
    13     9    10    2
    14     9    11   am
    15    11    12    1
    16    11    22    1
    17    12    13    1
    18    12    27    1
    19    12    28    1
    20    13    14   ar
    21    14    15   ar
    22    14    29    1
    23    15    16   ar
    24    15    30    1
    25    16    17   ar
    26    16    31    1
    27    17    18   ar
    28    18    19   ar
    29    18    32    1
    30    19    20   ar
    31    20    21   ar
    32    20    33    1
    33    21    13   ar
    34    21    17   ar
    35    22     5    2
    36    22    34    1
    37    19    35    1
@<TRIPOS>MOLECULE
*****
 35 37 0 0 0
SMALL
GASTEIGER

@<TRIPOS>ATOM
      1 C          -3.3713    2.4656   -2.9211 C.2     1  UNL11      -0.0951
      2 C          -2.6391    1.5651   -2.3492 C.2     1  UNL11      -0.0212
      3 C          -2.8483    0.1950   -2.0483 C.2     1  UNL11       0.1912
      4 O          -3.8070   -0.3855   -2.7526 O.2     1  UNL11      -0.2871
      5 C          -2.1623   -0.6301   -1.0865 C.2     1  UNL11       0.0875
      6 C          -2.5464   -1.9914   -1.0478 C.2     1  UNL11       0.0002
      7 C          -1.8953   -2.8209   -0.1831 C.2     1  UNL11       0.2376
      8 F          -2.2880   -4.1351   -0.1665 F       1  UNL11      -0.1947
      9 C          -0.8915   -2.3524    0.6316 C.2     1  UNL11       0.4436
     10 O          -0.3337   -3.1691    1.4047 O.2     1  UNL11      -0.2114
     11 N          -0.5276   -1.0458    0.5889 N.am    1  UNL11      -0.1308
     12 C           0.4643   -0.5644    1.4391 C.3     1  UNL11       0.1736
     13 C           1.6929    0.0365    1.0193 C.ar    1  UNL11       0.0317
     14 C           2.1880   -0.4208   -0.2183 C.ar    1  UNL11      -0.0516
     15 C           3.3577    0.0780   -0.7318 C.ar    1  UNL11      -0.0550
     16 C           4.0618    1.0365   -0.0360 C.ar    1  UNL11       0.0125
     17 C           3.6002    1.5012    1.1765 C.ar    1  UNL11       0.2384
     18 N           4.0488    2.4032    2.0648 N.ar    1  UNL11      -0.1241
     19 N           3.2208    2.4723    3.0730 N.ar    1  UNL11      -0.1713
     20 C           2.1791    1.6119    2.8946 C.ar    1  UNL11       0.0742
     21 C           2.4033    0.9858    1.6942 C.ar    1  UNL11       0.0785
     22 C          -1.1742   -0.2314   -0.2677 C.2     1  UNL11       0.1790
     23 H          -4.3427    2.4414   -3.3339 H       1  UNL11       0.0536
     24 H          -2.9399    3.5086   -3.0304 H       1  UNL11       0.0536
     25 H          -1.5997    1.9507   -2.0109 H       1  UNL11       0.0650
     26 H          -3.3538   -2.3595   -1.7026 H       1  UNL11       0.0659
     27 H           0.0219    0.1765    2.2144 H       1  UNL11       0.1079
     28 H           0.7772   -1.3930    2.1872 H       1  UNL11       0.1079
     29 H           1.6452   -1.1672   -0.7662 H       1  UNL11       0.0623
     30 H           3.7478   -0.2635   -1.6783 H       1  UNL11       0.0620
     31 H           4.9852    1.4498   -0.4115 H       1  UNL11       0.0684
     32 H           4.9450    2.9364    1.9020 H       1  UNL11       0.4871
     33 H           1.3574    1.4596    3.5583 H       1  UNL11       0.0870
     34 H          -0.8193    0.7709   -0.2740 H       1  UNL11       0.1378
     35 H           3.3335    3.0632    3.8523 H       1  UNL11       0.2358
@<TRIPOS>BOND
     1     1     2    2
     2     1    23    1
     3     1    24    1
     4     2     3    1
     5     2    25    1
     6     3     4    2
     7     3     5    1
     8     5     6    1
     9     6     7    2
    10     6    26    1
    11     7     8    1
    12     7     9    1
    13     9    10    2
    14     9    11   am
    15    11    12    1
    16    11    22    1
    17    12    13    1
    18    12    27    1
    19    12    28    1
    20    13    14   ar
    21    14    15   ar
    22    14    29    1
    23    15    16   ar
    24    15    30    1
    25    16    17   ar
    26    16    31    1
    27    17    18   ar
    28    18    19   ar
    29    18    32    1
    30    19    20   ar
    31    20    21   ar
    32    20    33    1
    33    21    13   ar
    34    21    17   ar
    35    22     5    2
    36    22    34    1
    37    19    35    1
@<TRIPOS>MOLECULE
*****
 35 37 0 0 0
SMALL
GASTEIGER

@<TRIPOS>ATOM
      1 C          -6.4288   -2.7074    0.4353 C.2     1  UNL11      -0.0951
      2 C          -5.2529   -2.3780    0.0078 C.2     1  UNL11      -0.0212
      3 C          -4.2147   -1.5780    0.5498 C.2     1  UNL11       0.1912
      4 O          -4.6018   -0.7364    1.4954 O.2     1  UNL11      -0.2871
      5 C          -2.8158   -1.5641    0.2047 C.2     1  UNL11       0.0875
      6 C          -2.4854   -2.0685   -1.0753 C.2     1  UNL11       0.0002
      7 C          -1.1785   -2.0365   -1.4635 C.2     1  UNL11       0.2376
      8 F          -0.8868   -2.5320   -2.7089 F       1  UNL11      -0.1947
      9 C          -0.2037   -1.5287   -0.6372 C.2     1  UNL11       0.4436
     10 O           0.9798   -1.5295   -1.0560 O.2     1  UNL11      -0.2114
     11 N          -0.5276   -1.0458    0.5889 N.am    1  UNL11      -0.1308
     12 C           0.4643   -0.5644    1.4391 C.3     1  UNL11       0.1736
     13 C           1.6929    0.0365    1.0193 C.ar    1  UNL11       0.0317
     14 C           2.8590   -0.6262    1.4515 C.ar    1  UNL11      -0.0516
     15 C           4.1004   -0.1503    1.1148 C.ar    1  UNL11      -0.0550
     16 C           4.2164    0.9873    0.3460 C.ar    1  UNL11       0.0125
     17 C           3.0923    1.6548   -0.0900 C.ar    1  UNL11       0.2384
     18 N           2.8868    2.7564   -0.8303 N.ar    1  UNL11      -0.1241
     19 N           1.6032    2.9656   -0.9549 N.ar    1  UNL11      -0.1713
     20 C           0.8970    2.0034   -0.2970 C.ar    1  UNL11       0.0742
     21 C           1.8271    1.1614    0.2589 C.ar    1  UNL11       0.0785
     22 C          -1.8204   -1.0796    0.9665 C.2     1  UNL11       0.1790
     23 H          -6.9597   -2.4765    1.3181 H       1  UNL11       0.0536
     24 H          -7.0646   -3.3758   -0.2243 H       1  UNL11       0.0536
     25 H          -4.9886   -2.8233   -1.0291 H       1  UNL11       0.0650
     26 H          -3.2722   -2.4763   -1.7316 H       1  UNL11       0.0659
     27 H           0.0219    0.1765    2.2144 H       1  UNL11       0.1079
     28 H           0.7772   -1.3930    2.1872 H       1  UNL11       0.1079
     29 H           2.7767   -1.5129    2.0506 H       1  UNL11       0.0623
     30 H           5.0012   -0.6483    1.4391 H       1  UNL11       0.0620
     31 H           5.1775    1.3883    0.0633 H       1  UNL11       0.0684
     32 H           3.6930    3.3164   -1.2182 H       1  UNL11       0.4871
     33 H          -0.1652    1.9257   -0.2308 H       1  UNL11       0.0870
     34 H          -2.0099   -0.6574    1.9238 H       1  UNL11       0.1378
     35 H           1.2023    3.7135   -1.4541 H       1  UNL11       0.2358
@<TRIPOS>BOND
     1     1     2    2
     2     1    23    1
     3     1    24    1
     4     2     3    1
     5     2    25    1
     6     3     4    2
     7     3     5    1
     8     5     6    1
     9     6     7    2
    10     6    26    1
    11     7     8    1
    12     7     9    1
    13     9    10    2
    14     9    11   am
    15    11    12    1
    16    11    22    1
    17    12    13    1
    18    12    27    1
    19    12    28    1
    20    13    14   ar
    21    14    15   ar
    22    14    29    1
    23    15    16   ar
    24    15    30    1
    25    16    17   ar
    26    16    31    1
    27    17    18   ar
    28    18    19   ar
    29    18    32    1
    30    19    20   ar
    31    20    21   ar
    32    20    33    1
    33    21    13   ar
    34    21    17   ar
    35    22     5    2
    36    22    34    1
    37    19    35    1
@<TRIPOS>MOLECULE
*****
 35 37 0 0 0
SMALL
GASTEIGER

@<TRIPOS>ATOM
      1 C          -2.2789   -1.3758   -5.3161 C.2     1  UNL11      -0.0951
      2 C          -2.2754   -1.3953   -4.0224 C.2     1  UNL11      -0.0212
      3 C          -1.2384   -1.3419   -3.0562 C.2     1  UNL11       0.1912
      4 O          -0.0176   -1.2538   -3.5600 O.2     1  UNL11      -0.2871
      5 C          -1.3445   -1.3737   -1.6195 C.2     1  UNL11       0.0875
      6 C          -2.5313   -1.9384   -1.0954 C.2     1  UNL11       0.0002
      7 C          -2.6587   -2.0293    0.2593 C.2     1  UNL11       0.2376
      8 F          -3.8192   -2.5807    0.7398 F       1  UNL11      -0.1947
      9 C          -1.6636   -1.5857    1.0983 C.2     1  UNL11       0.4436
     10 O          -1.8451   -1.6984    2.3353 O.2     1  UNL11      -0.2114
     11 N          -0.5276   -1.0458    0.5889 N.am    1  UNL11      -0.1308
     12 C           0.4643   -0.5644    1.4391 C.3     1  UNL11       0.1736
     13 C           1.6929    0.0365    1.0193 C.ar    1  UNL11       0.0317
     14 C           1.8667    0.1257   -0.3763 C.ar    1  UNL11      -0.0516
     15 C           3.0024    0.6826   -0.9062 C.ar    1  UNL11      -0.0550
     16 C           3.9883    1.1620   -0.0715 C.ar    1  UNL11       0.0125
     17 C           3.8439    1.0872    1.2971 C.ar    1  UNL11       0.2384
     18 N           4.6058    1.4563    2.3397 N.ar    1  UNL11      -0.1241
     19 N           3.9958    1.1546    3.4549 N.ar    1  UNL11      -0.1713
     20 C           2.7932    0.5675    3.1970 C.ar    1  UNL11       0.0742
     21 C           2.6795    0.5163    1.8304 C.ar    1  UNL11       0.0785
     22 C          -0.4074   -0.9592   -0.7502 C.2     1  UNL11       0.1790
     23 H          -1.5063   -1.3121   -6.0327 H       1  UNL11       0.0536
     24 H          -3.2806   -1.4360   -5.8443 H       1  UNL11       0.0536
     25 H          -3.3314   -1.4733   -3.5512 H       1  UNL11       0.0650
     26 H          -3.3260   -2.2901   -1.7742 H       1  UNL11       0.0659
     27 H           0.0219    0.1765    2.2144 H       1  UNL11       0.1079
     28 H           0.7772   -1.3930    2.1872 H       1  UNL11       0.1079
     29 H           1.1032   -0.2455   -1.0330 H       1  UNL11       0.0623
     30 H           3.1480    0.7571   -1.9729 H       1  UNL11       0.0620
     31 H           4.8938    1.6059   -0.4554 H       1  UNL11       0.0684
     32 H           5.5453    1.9160    2.1985 H       1  UNL11       0.4871
     33 H           2.0865    0.2195    3.9169 H       1  UNL11       0.0870
     34 H           0.5186   -0.5566   -1.0833 H       1  UNL11       0.1378
     35 H           4.3545    1.3271    4.3553 H       1  UNL11       0.2358
@<TRIPOS>BOND
     1     1     2    2
     2     1    23    1
     3     1    24    1
     4     2     3    1
     5     2    25    1
     6     3     4    2
     7     3     5    1
     8     5     6    1
     9     6     7    2
    10     6    26    1
    11     7     8    1
    12     7     9    1
    13     9    10    2
    14     9    11   am
    15    11    12    1
    16    11    22    1
    17    12    13    1
    18    12    27    1
    19    12    28    1
    20    13    14   ar
    21    14    15   ar
    22    14    29    1
    23    15    16   ar
    24    15    30    1
    25    16    17   ar
    26    16    31    1
    27    17    18   ar
    28    18    19   ar
    29    18    32    1
    30    19    20   ar
    31    20    21   ar
    32    20    33    1
    33    21    13   ar
    34    21    17   ar
    35    22     5    2
    36    22    34    1
    37    19    35    1
@<TRIPOS>MOLECULE
*****
 35 37 0 0 0
SMALL
GASTEIGER

@<TRIPOS>ATOM
      1 C          -3.9399   -5.9373   -0.9318 C.2     1  UNL11      -0.0951
      2 C          -3.2355   -4.8582   -1.0470 C.2     1  UNL11      -0.0212
      3 C          -2.2665   -4.2410   -0.2152 C.2     1  UNL11       0.1912
      4 O          -1.7160   -5.0439    0.6816 O.2     1  UNL11      -0.2871
      5 C          -1.8155   -2.8724   -0.2214 C.2     1  UNL11       0.0875
      6 C          -2.4479   -2.0129   -1.1506 C.2     1  UNL11       0.0002
      7 C          -2.0844   -0.6986   -1.1641 C.2     1  UNL11       0.2376
      8 F          -2.7134    0.1118   -2.0749 F       1  UNL11      -0.1947
      9 C          -1.1296   -0.2160   -0.3002 C.2     1  UNL11       0.4436
     10 O          -0.8415    1.0040   -0.3658 O.2     1  UNL11      -0.2114
     11 N          -0.5276   -1.0458    0.5889 N.am    1  UNL11      -0.1308
     12 C           0.4643   -0.5644    1.4391 C.3     1  UNL11       0.1736
     13 C           1.6929    0.0365    1.0193 C.ar    1  UNL11       0.0317
     14 C           1.6340    0.7144   -0.2147 C.ar    1  UNL11      -0.0516
     15 C           2.7452    1.3337   -0.7271 C.ar    1  UNL11      -0.0550
     16 C           3.9353    1.2968   -0.0337 C.ar    1  UNL11       0.0125
     17 C           4.0206    0.6408    1.1754 C.ar    1  UNL11       0.2384
     18 N           5.0096    0.4358    2.0606 N.ar    1  UNL11      -0.1241
     19 N           4.5574   -0.2654    3.0660 N.ar    1  UNL11      -0.1713
     20 C           3.2381   -0.5577    2.8885 C.ar    1  UNL11       0.0742
     21 C           2.8797    0.0103    1.6919 C.ar    1  UNL11       0.0785
     22 C          -0.8913   -2.3431    0.5979 C.2     1  UNL11       0.1790
     23 H          -3.9970   -6.6775   -0.1812 H       1  UNL11       0.0536
     24 H          -4.6576   -6.1940   -1.7713 H       1  UNL11       0.0536
     25 H          -3.4326   -4.2713   -2.0268 H       1  UNL11       0.0650
     26 H          -3.2112   -2.4073   -1.8418 H       1  UNL11       0.0659
     27 H           0.0219    0.1765    2.2144 H       1  UNL11       0.1079
     28 H           0.7772   -1.3930    2.1872 H       1  UNL11       0.1079
     29 H           0.7105    0.7476   -0.7607 H       1  UNL11       0.0623
     30 H           2.7136    1.8562   -1.6708 H       1  UNL11       0.0620
     31 H           4.8280    1.7735   -0.4082 H       1  UNL11       0.0684
     32 H           5.9806    0.8162    1.8980 H       1  UNL11       0.4871
     33 H           2.6146   -1.1164    3.5502 H       1  UNL11       0.0870
     34 H          -0.4052   -2.9307    1.3388 H       1  UNL11       0.1378
     35 H           5.0944   -0.5437    3.8428 H       1  UNL11       0.2358
@<TRIPOS>BOND
     1     1     2    2
     2     1    23    1
     3     1    24    1
     4     2     3    1
     5     2    25    1
     6     3     4    2
     7     3     5    1
     8     5     6    1
     9     6     7    2
    10     6    26    1
    11     7     8    1
    12     7     9    1
    13     9    10    2
    14     9    11   am
    15    11    12    1
    16    11    22    1
    17    12    13    1
    18    12    27    1
    19    12    28    1
    20    13    14   ar
    21    14    15   ar
    22    14    29    1
    23    15    16   ar
    24    15    30    1
    25    16    17   ar
    26    16    31    1
    27    17    18   ar
    28    18    19   ar
    29    18    32    1
    30    19    20   ar
    31    20    21   ar
    32    20    33    1
    33    21    13   ar
    34    21    17   ar
    35    22     5    2
    36    22    34    1
    37    19    35    1
@<TRIPOS>MOLECULE
*****
 35 37 0 0 0
SMALL
GASTEIGER

@<TRIPOS>ATOM
      1 C          -3.6026   -3.1006    3.2211 C.2     1  UNL11      -0.0951
      2 C          -4.1339   -3.2687    2.0534 C.2     1  UNL11      -0.0212
      3 C          -3.8424   -2.7366    0.7714 C.2     1  UNL11       0.1912
      4 O          -4.8408   -2.8040   -0.0950 O.2     1  UNL11      -0.2871
      5 C          -2.6160   -2.1445    0.3003 C.2     1  UNL11       0.0875
      6 C          -2.4626   -2.0647   -1.1040 C.2     1  UNL11       0.0002
      7 C          -1.3371   -1.4734   -1.5973 C.2     1  UNL11       0.2376
      8 F          -1.2145   -1.4098   -2.9620 F       1  UNL11      -0.1947
      9 C          -0.3738   -0.9665   -0.7570 C.2     1  UNL11       0.4436
     10 O           0.6381   -0.4356   -1.2768 O.2     1  UNL11      -0.2114
     11 N          -0.5276   -1.0458    0.5889 N.am    1  UNL11      -0.1308
     12 C           0.4643   -0.5644    1.4391 C.3     1  UNL11       0.1736
     13 C           1.6929    0.0365    1.0193 C.ar    1  UNL11       0.0317
     14 C           1.6340    0.7144   -0.2147 C.ar    1  UNL11      -0.0516
     15 C           2.7452    1.3337   -0.7271 C.ar    1  UNL11      -0.0550
     16 C           3.9353    1.2968   -0.0337 C.ar    1  UNL11       0.0125
     17 C           4.0206    0.6408    1.1754 C.ar    1  UNL11       0.2384
     18 N           5.0096    0.4358    2.0606 N.ar    1  UNL11      -0.1241
     19 N           4.5574   -0.2654    3.0660 N.ar    1  UNL11      -0.1713
     20 C           3.2381   -0.5577    2.8885 C.ar    1  UNL11       0.0742
     21 C           2.8797    0.0103    1.6919 C.ar    1  UNL11       0.0785
     22 C          -1.6419   -1.6306    1.0702 C.2     1  UNL11       0.1790
     23 H          -2.7915   -2.5163    3.5606 H       1  UNL11       0.0536
     24 H          -4.0529   -3.6663    4.0947 H       1  UNL11       0.0536
     25 H          -5.0319   -4.0013    2.0474 H       1  UNL11       0.0650
     26 H          -3.2383   -2.4753   -1.7717 H       1  UNL11       0.0659
     27 H           0.0219    0.1765    2.2144 H       1  UNL11       0.1079
     28 H           0.7772   -1.3930    2.1872 H       1  UNL11       0.1079
     29 H           0.7105    0.7476   -0.7607 H       1  UNL11       0.0623
     30 H           2.7136    1.8562   -1.6708 H       1  UNL11       0.0620
     31 H           4.8280    1.7735   -0.4082 H       1  UNL11       0.0684
     32 H           5.9806    0.8162    1.8980 H       1  UNL11       0.4871
     33 H           2.6146   -1.1164    3.5502 H       1  UNL11       0.0870
     34 H          -1.7148   -1.6313    2.1309 H       1  UNL11       0.1378
     35 H           5.0944   -0.5437    3.8428 H       1  UNL11       0.2358
@<TRIPOS>BOND
     1     1     2    2
     2     1    23    1
     3     1    24    1
     4     2     3    1
     5     2    25    1
     6     3     4    2
     7     3     5    1
     8     5     6    1
     9     6     7    2
    10     6    26    1
    11     7     8    1
    12     7     9    1
    13     9    10    2
    14     9    11   am
    15    11    12    1
    16    11    22    1
    17    12    13    1
    18    12    27    1
    19    12    28    1
    20    13    14   ar
    21    14    15   ar
    22    14    29    1
    23    15    16   ar
    24    15    30    1
    25    16    17   ar
    26    16    31    1
    27    17    18   ar
    28    18    19   ar
    29    18    32    1
    30    19    20   ar
    31    20    21   ar
    32    20    33    1
    33    21    13   ar
    34    21    17   ar
    35    22     5    2
    36    22    34    1
    37    19    35    1
@<TRIPOS>MOLECULE
*****
 35 37 0 0 0
SMALL
GASTEIGER

@<TRIPOS>ATOM
      1 C          -5.0355   -4.0905    2.4844 C.2     1  UNL11      -0.0951
      2 C          -4.1339   -3.2687    2.0534 C.2     1  UNL11      -0.0212
      3 C          -3.8424   -2.7366    0.7714 C.2     1  UNL11       0.1912
      4 O          -4.8408   -2.8040   -0.0950 O.2     1  UNL11      -0.2871
      5 C          -2.6160   -2.1445    0.3003 C.2     1  UNL11       0.0875
      6 C          -2.4626   -2.0647   -1.1040 C.2     1  UNL11       0.0002
      7 C          -1.3371   -1.4734   -1.5973 C.2     1  UNL11       0.2376
      8 F          -1.2145   -1.4098   -2.9620 F       1  UNL11      -0.1947
      9 C          -0.3738   -0.9665   -0.7570 C.2     1  UNL11       0.4436
     10 O           0.6381   -0.4356   -1.2768 O.2     1  UNL11      -0.2114
     11 N          -0.5276   -1.0458    0.5889 N.am    1  UNL11      -0.1308
     12 C           0.4643   -0.5644    1.4391 C.3     1  UNL11       0.1736
     13 C           1.6929    0.0365    1.0193 C.ar    1  UNL11       0.0317
     14 C           1.6471    1.4354    0.8555 C.ar    1  UNL11      -0.0516
     15 C           2.7601    2.1305    0.4570 C.ar    1  UNL11      -0.0550
     16 C           3.9392    1.4608    0.2124 C.ar    1  UNL11       0.0125
     17 C           4.0116    0.0930    0.3649 C.ar    1  UNL11       0.2384
     18 N           4.9881   -0.8154    0.2068 N.ar    1  UNL11      -0.1241
     19 N           4.5268   -2.0055    0.4857 N.ar    1  UNL11      -0.1713
     20 C           3.2136   -1.9362    0.8436 C.ar    1  UNL11       0.0742
     21 C           2.8689   -0.6098    0.7726 C.ar    1  UNL11       0.0785
     22 C          -1.6419   -1.6306    1.0702 C.2     1  UNL11       0.1790
     23 H          -5.8220   -4.6056    2.0043 H       1  UNL11       0.0536
     24 H          -5.0328   -4.3489    3.5886 H       1  UNL11       0.0536
     25 H          -3.4143   -2.8867    2.8778 H       1  UNL11       0.0650
     26 H          -3.2383   -2.4753   -1.7717 H       1  UNL11       0.0659
     27 H           0.0219    0.1765    2.2144 H       1  UNL11       0.1079
     28 H           0.7772   -1.3930    2.1872 H       1  UNL11       0.1079
     29 H           0.7322    1.9641    1.0441 H       1  UNL11       0.0623
     30 H           2.7385    3.2017    0.3279 H       1  UNL11       0.0620
     31 H           4.8329    1.9771   -0.1022 H       1  UNL11       0.0684
     32 H           5.9577   -0.5326   -0.0996 H       1  UNL11       0.4871
     33 H           2.5850   -2.7524    1.1219 H       1  UNL11       0.0870
     34 H          -1.7148   -1.6313    2.1309 H       1  UNL11       0.1378
     35 H           5.0539   -2.8359    0.4432 H       1  UNL11       0.2358
@<TRIPOS>BOND
     1     1     2    2
     2     1    23    1
     3     1    24    1
     4     2     3    1
     5     2    25    1
     6     3     4    2
     7     3     5    1
     8     5     6    1
     9     6     7    2
    10     6    26    1
    11     7     8    1
    12     7     9    1
    13     9    10    2
    14     9    11   am
    15    11    12    1
    16    11    22    1
    17    12    13    1
    18    12    27    1
    19    12    28    1
    20    13    14   ar
    21    14    15   ar
    22    14    29    1
    23    15    16   ar
    24    15    30    1
    25    16    17   ar
    26    16    31    1
    27    17    18   ar
    28    18    19   ar
    29    18    32    1
    30    19    20   ar
    31    20    21   ar
    32    20    33    1
    33    21    13   ar
    34    21    17   ar
    35    22     5    2
    36    22    34    1
    37    19    35    1
@<TRIPOS>MOLECULE
*****
 35 37 0 0 0
SMALL
GASTEIGER

@<TRIPOS>ATOM
      1 C          -0.6853    1.7905   -2.9519 C.2     1  UNL11      -0.0951
      2 C          -1.6005    0.9385   -3.2844 C.2     1  UNL11      -0.0212
      3 C          -1.9830   -0.3241   -2.7638 C.2     1  UNL11       0.1912
      4 O          -2.6680   -1.0838   -3.6039 O.2     1  UNL11      -0.2871
      5 C          -1.7268   -0.8737   -1.4566 C.2     1  UNL11       0.0875
      6 C          -2.5456   -1.9597   -1.0666 C.2     1  UNL11       0.0002
      7 C          -2.3125   -2.5407    0.1449 C.2     1  UNL11       0.2376
      8 F          -3.1211   -3.5911    0.4975 F       1  UNL11      -0.1947
      9 C          -1.3097   -2.0874    0.9695 C.2     1  UNL11       0.4436
     10 O          -1.1491   -2.6667    2.0716 O.2     1  UNL11      -0.2114
     11 N          -0.5276   -1.0458    0.5889 N.am    1  UNL11      -0.1308
     12 C           0.4643   -0.5644    1.4391 C.3     1  UNL11       0.1736
     13 C           1.6929    0.0365    1.0193 C.ar    1  UNL11       0.0317
     14 C           1.8667    0.1257   -0.3763 C.ar    1  UNL11      -0.0516
     15 C           3.0024    0.6826   -0.9062 C.ar    1  UNL11      -0.0550
     16 C           3.9883    1.1620   -0.0715 C.ar    1  UNL11       0.0125
     17 C           3.8439    1.0872    1.2971 C.ar    1  UNL11       0.2384
     18 N           4.6058    1.4563    2.3397 N.ar    1  UNL11      -0.1241
     19 N           3.9958    1.1546    3.4549 N.ar    1  UNL11      -0.1713
     20 C           2.7932    0.5675    3.1970 C.ar    1  UNL11       0.0742
     21 C           2.6795    0.5163    1.8304 C.ar    1  UNL11       0.0785
     22 C          -0.7625   -0.4763   -0.6093 C.2     1  UNL11       0.1790
     23 H           0.0460    1.7941   -2.1905 H       1  UNL11       0.0536
     24 H          -0.6012    2.7430   -3.5613 H       1  UNL11       0.0536
     25 H          -2.2408    1.2680   -4.1926 H       1  UNL11       0.0650
     26 H          -3.3493   -2.3164   -1.7321 H       1  UNL11       0.0659
     27 H           0.0219    0.1765    2.2144 H       1  UNL11       0.1079
     28 H           0.7772   -1.3930    2.1872 H       1  UNL11       0.1079
     29 H           1.1032   -0.2455   -1.0330 H       1  UNL11       0.0623
     30 H           3.1480    0.7571   -1.9729 H       1  UNL11       0.0620
     31 H           4.8938    1.6059   -0.4554 H       1  UNL11       0.0684
     32 H           5.5453    1.9160    2.1985 H       1  UNL11       0.4871
     33 H           2.0865    0.2195    3.9169 H       1  UNL11       0.0870
     34 H          -0.0947    0.3122   -0.8597 H       1  UNL11       0.1378
     35 H           4.3545    1.3271    4.3553 H       1  UNL11       0.2358
@<TRIPOS>BOND
     1     1     2    2
     2     1    23    1
     3     1    24    1
     4     2     3    1
     5     2    25    1
     6     3     4    2
     7     3     5    1
     8     5     6    1
     9     6     7    2
    10     6    26    1
    11     7     8    1
    12     7     9    1
    13     9    10    2
    14     9    11   am
    15    11    12    1
    16    11    22    1
    17    12    13    1
    18    12    27    1
    19    12    28    1
    20    13    14   ar
    21    14    15   ar
    22    14    29    1
    23    15    16   ar
    24    15    30    1
    25    16    17   ar
    26    16    31    1
    27    17    18   ar
    28    18    19   ar
    29    18    32    1
    30    19    20   ar
    31    20    21   ar
    32    20    33    1
    33    21    13   ar
    34    21    17   ar
    35    22     5    2
    36    22    34    1
    37    19    35    1
@<TRIPOS>MOLECULE
*****
 35 37 0 0 0
SMALL
GASTEIGER

@<TRIPOS>ATOM
      1 C          -2.7984    2.4702   -1.2610 C.2     1  UNL11      -0.0951
      2 C          -3.7012    1.5447   -1.2103 C.2     1  UNL11      -0.0212
      3 C          -3.6347    0.1326   -1.0954 C.2     1  UNL11       0.1912
      4 O          -4.7231   -0.5062   -1.4946 O.2     1  UNL11      -0.2871
      5 C          -2.5510   -0.6804   -0.6045 C.2     1  UNL11       0.0875
      6 C          -2.5343   -2.0257   -1.0425 C.2     1  UNL11       0.0002
      7 C          -1.5042   -2.8228   -0.6383 C.2     1  UNL11       0.2376
      8 F          -1.5132   -4.1222   -1.0777 F       1  UNL11      -0.1947
      9 C          -0.5058   -2.3373    0.1731 C.2     1  UNL11       0.4436
     10 O           0.4127   -3.1245    0.5086 O.2     1  UNL11      -0.2114
     11 N          -0.5276   -1.0458    0.5889 N.am    1  UNL11      -0.1308
     12 C           0.4643   -0.5644    1.4391 C.3     1  UNL11       0.1736
     13 C           1.6929    0.0365    1.0193 C.ar    1  UNL11       0.0317
     14 C           1.6340    0.7144   -0.2147 C.ar    1  UNL11      -0.0516
     15 C           2.7452    1.3337   -0.7271 C.ar    1  UNL11      -0.0550
     16 C           3.9353    1.2968   -0.0337 C.ar    1  UNL11       0.0125
     17 C           4.0206    0.6408    1.1754 C.ar    1  UNL11       0.2384
     18 N           5.0096    0.4358    2.0606 N.ar    1  UNL11      -0.1241
     19 N           4.5574   -0.2654    3.0660 N.ar    1  UNL11      -0.1713
     20 C           3.2381   -0.5577    2.8885 C.ar    1  UNL11       0.0742
     21 C           2.8797    0.0103    1.6919 C.ar    1  UNL11       0.0785
     22 C          -1.5476   -0.2632    0.1859 C.2     1  UNL11       0.1790
     23 H          -1.7435    2.4430   -1.2296 H       1  UNL11       0.0536
     24 H          -3.1462    3.5451   -1.3585 H       1  UNL11       0.0536
     25 H          -4.7873    1.9446   -1.2717 H       1  UNL11       0.0650
     26 H          -3.3395   -2.4087   -1.6913 H       1  UNL11       0.0659
     27 H           0.0219    0.1765    2.2144 H       1  UNL11       0.1079
     28 H           0.7772   -1.3930    2.1872 H       1  UNL11       0.1079
     29 H           0.7105    0.7476   -0.7607 H       1  UNL11       0.0623
     30 H           2.7136    1.8562   -1.6708 H       1  UNL11       0.0620
     31 H           4.8280    1.7735   -0.4082 H       1  UNL11       0.0684
     32 H           5.9806    0.8162    1.8980 H       1  UNL11       0.4871
     33 H           2.6146   -1.1164    3.5502 H       1  UNL11       0.0870
     34 H          -1.4874    0.7442    0.5205 H       1  UNL11       0.1378
     35 H           5.0944   -0.5437    3.8428 H       1  UNL11       0.2358
@<TRIPOS>BOND
     1     1     2    2
     2     1    23    1
     3     1    24    1
     4     2     3    1
     5     2    25    1
     6     3     4    2
     7     3     5    1
     8     5     6    1
     9     6     7    2
    10     6    26    1
    11     7     8    1
    12     7     9    1
    13     9    10    2
    14     9    11   am
    15    11    12    1
    16    11    22    1
    17    12    13    1
    18    12    27    1
    19    12    28    1
    20    13    14   ar
    21    14    15   ar
    22    14    29    1
    23    15    16   ar
    24    15    30    1
    25    16    17   ar
    26    16    31    1
    27    17    18   ar
    28    18    19   ar
    29    18    32    1
    30    19    20   ar
    31    20    21   ar
    32    20    33    1
    33    21    13   ar
    34    21    17   ar
    35    22     5    2
    36    22    34    1
    37    19    35    1
@<TRIPOS>MOLECULE
*****
 35 37 0 0 0
SMALL
GASTEIGER

@<TRIPOS>ATOM
      1 C          -5.1817   -5.0308    0.0037 C.2     1  UNL11      -0.0951
      2 C          -4.1488   -4.3098   -0.2919 C.2     1  UNL11      -0.0212
      3 C          -3.1309   -3.7092    0.4920 C.2     1  UNL11       0.1912
      4 O          -2.9865   -4.2272    1.7015 O.2     1  UNL11      -0.2871
      5 C          -2.2507   -2.6223    0.1447 C.2     1  UNL11       0.0875
      6 C          -2.4489   -2.0444   -1.1315 C.2     1  UNL11       0.0002
      7 C          -1.6680   -0.9848   -1.4879 C.2     1  UNL11       0.2376
      8 F          -1.8816   -0.4443   -2.7304 F       1  UNL11      -0.1947
      9 C          -0.7120   -0.4872   -0.6339 C.2     1  UNL11       0.4436
     10 O          -0.0270    0.4896   -1.0247 O.2     1  UNL11      -0.2114
     11 N          -0.5276   -1.0458    0.5889 N.am    1  UNL11      -0.1308
     12 C           0.4643   -0.5644    1.4391 C.3     1  UNL11       0.1736
     13 C           1.6929    0.0365    1.0193 C.ar    1  UNL11       0.0317
     14 C           2.8590   -0.6262    1.4515 C.ar    1  UNL11      -0.0516
     15 C           4.1004   -0.1503    1.1148 C.ar    1  UNL11      -0.0550
     16 C           4.2164    0.9873    0.3460 C.ar    1  UNL11       0.0125
     17 C           3.0923    1.6548   -0.0900 C.ar    1  UNL11       0.2384
     18 N           2.8868    2.7564   -0.8303 N.ar    1  UNL11      -0.1241
     19 N           1.6032    2.9656   -0.9549 N.ar    1  UNL11      -0.1713
     20 C           0.8970    2.0034   -0.2970 C.ar    1  UNL11       0.0742
     21 C           1.8271    1.1614    0.2589 C.ar    1  UNL11       0.0785
     22 C          -1.3025   -2.0920    0.9355 C.2     1  UNL11       0.1790
     23 H          -5.5682   -5.3850    0.9200 H       1  UNL11       0.0536
     24 H          -5.8432   -5.3833   -0.8472 H       1  UNL11       0.0536
     25 H          -4.0253   -4.1098   -1.4269 H       1  UNL11       0.0650
     26 H          -3.2160   -2.4501   -1.8119 H       1  UNL11       0.0659
     27 H           0.0219    0.1765    2.2144 H       1  UNL11       0.1079
     28 H           0.7772   -1.3930    2.1872 H       1  UNL11       0.1079
     29 H           2.7767   -1.5129    2.0506 H       1  UNL11       0.0623
     30 H           5.0012   -0.6483    1.4391 H       1  UNL11       0.0620
     31 H           5.1775    1.3883    0.0633 H       1  UNL11       0.0684
     32 H           3.6930    3.3164   -1.2182 H       1  UNL11       0.4871
     33 H          -0.1652    1.9257   -0.2308 H       1  UNL11       0.0870
     34 H          -1.1287   -2.4615    1.9172 H       1  UNL11       0.1378
     35 H           1.2023    3.7135   -1.4541 H       1  UNL11       0.2358
@<TRIPOS>BOND
     1     1     2    2
     2     1    23    1
     3     1    24    1
     4     2     3    1
     5     2    25    1
     6     3     4    2
     7     3     5    1
     8     5     6    1
     9     6     7    2
    10     6    26    1
    11     7     8    1
    12     7     9    1
    13     9    10    2
    14     9    11   am
    15    11    12    1
    16    11    22    1
    17    12    13    1
    18    12    27    1
    19    12    28    1
    20    13    14   ar
    21    14    15   ar
    22    14    29    1
    23    15    16   ar
    24    15    30    1
    25    16    17   ar
    26    16    31    1
    27    17    18   ar
    28    18    19   ar
    29    18    32    1
    30    19    20   ar
    31    20    21   ar
    32    20    33    1
    33    21    13   ar
    34    21    17   ar
    35    22     5    2
    36    22    34    1
    37    19    35    1
@<TRIPOS>MOLECULE
*****
 35 37 0 0 0
SMALL
GASTEIGER

@<TRIPOS>ATOM
      1 C          -2.0091   -5.1012    2.1053 C.2     1  UNL11      -0.0951
      2 C          -2.1729   -5.1999    0.8256 C.2     1  UNL11      -0.0212
      3 C          -2.2665   -4.2410   -0.2152 C.2     1  UNL11       0.1912
      4 O          -2.8457   -4.6807   -1.3213 O.2     1  UNL11      -0.2871
      5 C          -1.8155   -2.8724   -0.2214 C.2     1  UNL11       0.0875
      6 C          -2.4479   -2.0129   -1.1506 C.2     1  UNL11       0.0002
      7 C          -2.0844   -0.6986   -1.1641 C.2     1  UNL11       0.2376
      8 F          -2.7134    0.1118   -2.0749 F       1  UNL11      -0.1947
      9 C          -1.1296   -0.2160   -0.3002 C.2     1  UNL11       0.4436
     10 O          -0.8415    1.0040   -0.3658 O.2     1  UNL11      -0.2114
     11 N          -0.5276   -1.0458    0.5889 N.am    1  UNL11      -0.1308
     12 C           0.4643   -0.5644    1.4391 C.3     1  UNL11       0.1736
     13 C           1.6929    0.0365    1.0193 C.ar    1  UNL11       0.0317
     14 C           1.6471    1.4354    0.8555 C.ar    1  UNL11      -0.0516
     15 C           2.7601    2.1305    0.4570 C.ar    1  UNL11      -0.0550
     16 C           3.9392    1.4608    0.2124 C.ar    1  UNL11       0.0125
     17 C           4.0116    0.0930    0.3649 C.ar    1  UNL11       0.2384
     18 N           4.9881   -0.8154    0.2068 N.ar    1  UNL11      -0.1241
     19 N           4.5268   -2.0055    0.4857 N.ar    1  UNL11      -0.1713
     20 C           3.2136   -1.9362    0.8436 C.ar    1  UNL11       0.0742
     21 C           2.8689   -0.6098    0.7726 C.ar    1  UNL11       0.0785
     22 C          -0.8913   -2.3431    0.5979 C.2     1  UNL11       0.1790
     23 H          -1.8952   -4.2732    2.7501 H       1  UNL11       0.0536
     24 H          -1.9724   -6.0595    2.7104 H       1  UNL11       0.0536
     25 H          -2.2630   -6.2915    0.4467 H       1  UNL11       0.0650
     26 H          -3.2112   -2.4073   -1.8418 H       1  UNL11       0.0659
     27 H           0.0219    0.1765    2.2144 H       1  UNL11       0.1079
     28 H           0.7772   -1.3930    2.1872 H       1  UNL11       0.1079
     29 H           0.7322    1.9641    1.0441 H       1  UNL11       0.0623
     30 H           2.7385    3.2017    0.3279 H       1  UNL11       0.0620
     31 H           4.8329    1.9771   -0.1022 H       1  UNL11       0.0684
     32 H           5.9577   -0.5326   -0.0996 H       1  UNL11       0.4871
     33 H           2.5850   -2.7524    1.1219 H       1  UNL11       0.0870
     34 H          -0.4052   -2.9307    1.3388 H       1  UNL11       0.1378
     35 H           5.0539   -2.8359    0.4432 H       1  UNL11       0.2358
@<TRIPOS>BOND
     1     1     2    2
     2     1    23    1
     3     1    24    1
     4     2     3    1
     5     2    25    1
     6     3     4    2
     7     3     5    1
     8     5     6    1
     9     6     7    2
    10     6    26    1
    11     7     8    1
    12     7     9    1
    13     9    10    2
    14     9    11   am
    15    11    12    1
    16    11    22    1
    17    12    13    1
    18    12    27    1
    19    12    28    1
    20    13    14   ar
    21    14    15   ar
    22    14    29    1
    23    15    16   ar
    24    15    30    1
    25    16    17   ar
    26    16    31    1
    27    17    18   ar
    28    18    19   ar
    29    18    32    1
    30    19    20   ar
    31    20    21   ar
    32    20    33    1
    33    21    13   ar
    34    21    17   ar
    35    22     5    2
    36    22    34    1
    37    19    35    1
@<TRIPOS>MOLECULE
*****
 35 37 0 0 0
SMALL
GASTEIGER

@<TRIPOS>ATOM
      1 C          -5.3416   -3.0125   -1.1951 C.2     1  UNL11      -0.0951
      2 C          -5.0543   -2.9447    0.0646 C.2     1  UNL11      -0.0212
      3 C          -3.8424   -2.7366    0.7714 C.2     1  UNL11       0.1912
      4 O          -3.8599   -3.1443    2.0306 O.2     1  UNL11      -0.2871
      5 C          -2.6160   -2.1445    0.3003 C.2     1  UNL11       0.0875
      6 C          -2.4626   -2.0647   -1.1040 C.2     1  UNL11       0.0002
      7 C          -1.3371   -1.4734   -1.5973 C.2     1  UNL11       0.2376
      8 F          -1.2145   -1.4098   -2.9620 F       1  UNL11      -0.1947
      9 C          -0.3738   -0.9665   -0.7570 C.2     1  UNL11       0.4436
     10 O           0.6381   -0.4356   -1.2768 O.2     1  UNL11      -0.2114
     11 N          -0.5276   -1.0458    0.5889 N.am    1  UNL11      -0.1308
     12 C           0.4643   -0.5644    1.4391 C.3     1  UNL11       0.1736
     13 C           1.6929    0.0365    1.0193 C.ar    1  UNL11       0.0317
     14 C           2.7670   -0.8595    0.8483 C.ar    1  UNL11      -0.0516
     15 C           3.9984   -0.4080    0.4474 C.ar    1  UNL11      -0.0550
     16 C           4.1949    0.9345    0.2076 C.ar    1  UNL11       0.0125
     17 C           3.1616    1.8324    0.3671 C.ar    1  UNL11       0.2384
     18 N           3.0457    3.1618    0.2151 N.ar    1  UNL11      -0.1241
     19 N           1.8247    3.5291    0.4999 N.ar    1  UNL11      -0.1713
     20 C           1.0727    2.4497    0.8558 C.ar    1  UNL11       0.0742
     21 C           1.9059    1.3622    0.7773 C.ar    1  UNL11       0.0785
     22 C          -1.6419   -1.6306    1.0702 C.2     1  UNL11       0.1790
     23 H          -4.7539   -2.9304   -2.0683 H       1  UNL11       0.0536
     24 H          -6.4231   -3.1949   -1.4830 H       1  UNL11       0.0536
     25 H          -5.9691   -3.0823    0.7628 H       1  UNL11       0.0650
     26 H          -3.2383   -2.4753   -1.7717 H       1  UNL11       0.0659
     27 H           0.0219    0.1765    2.2144 H       1  UNL11       0.1079
     28 H           0.7772   -1.3930    2.1872 H       1  UNL11       0.1079
     29 H           2.6217   -1.9068    1.0331 H       1  UNL11       0.0623
     30 H           4.8291   -1.0835    0.3126 H       1  UNL11       0.0620
     31 H           5.1507    1.3228   -0.1089 H       1  UNL11       0.0684
     32 H           3.8641    3.7535   -0.0916 H       1  UNL11       0.4871
     33 H           0.0436    2.4551    1.1381 H       1  UNL11       0.0870
     34 H          -1.7148   -1.6313    2.1309 H       1  UNL11       0.1378
     35 H           1.4942    4.4557    0.4625 H       1  UNL11       0.2358
@<TRIPOS>BOND
     1     1     2    2
     2     1    23    1
     3     1    24    1
     4     2     3    1
     5     2    25    1
     6     3     4    2
     7     3     5    1
     8     5     6    1
     9     6     7    2
    10     6    26    1
    11     7     8    1
    12     7     9    1
    13     9    10    2
    14     9    11   am
    15    11    12    1
    16    11    22    1
    17    12    13    1
    18    12    27    1
    19    12    28    1
    20    13    14   ar
    21    14    15   ar
    22    14    29    1
    23    15    16   ar
    24    15    30    1
    25    16    17   ar
    26    16    31    1
    27    17    18   ar
    28    18    19   ar
    29    18    32    1
    30    19    20   ar
    31    20    21   ar
    32    20    33    1
    33    21    13   ar
    34    21    17   ar
    35    22     5    2
    36    22    34    1
    37    19    35    1
