@<TRIPOS>MOLECULE
*****
 34 36 0 0 0
SMALL
GASTEIGER

@<TRIPOS>ATOM
      1 O           0.6143   -1.1222    2.7544 O.2     1  UNL11      -0.2445
      2 C           0.8663   -1.0972    1.5182 C.2     1  UNL11       0.3445
      3 O          -0.0968   -0.6044    0.6899 O.3     1  UNL11      -0.4217
      4 C          -1.3726   -1.0755    0.5391 C.ar    1  UNL11       0.1396
      5 C          -1.7527   -2.3880    0.7120 C.ar    1  UNL11      -0.0186
      6 C          -3.0682   -2.8034    0.5435 C.ar    1  UNL11      -0.0577
      7 C          -4.0259   -1.8786    0.1927 C.ar    1  UNL11      -0.0538
      8 C          -3.6880   -0.5562    0.0101 C.ar    1  UNL11      -0.0144
      9 C          -4.6277    0.4028   -0.3437 C.ar    1  UNL11      -0.0539
     10 C          -4.2811    1.7263   -0.5249 C.ar    1  UNL11      -0.0612
     11 C          -2.9739    2.1165   -0.3532 C.ar    1  UNL11      -0.0611
     12 C          -2.0447    1.1615   -0.0022 C.ar    1  UNL11      -0.0505
     13 C          -2.3576   -0.1744    0.1877 C.ar    1  UNL11       0.0245
     14 C           2.1627   -1.5956    1.0765 C.ar    1  UNL11       0.0616
     15 C           3.2630   -1.5072    1.9003 C.ar    1  UNL11      -0.0476
     16 C           4.5095   -1.9723    1.5086 C.ar    1  UNL11      -0.0588
     17 C           4.6850   -2.5422    0.2712 C.ar    1  UNL11      -0.0316
     18 C           3.5953   -2.6400   -0.5693 C.ar    1  UNL11       0.1224
     19 N           3.7488   -3.2258   -1.8566 N.4     1  UNL11       0.0060
     20 O           4.8379   -3.6469   -2.2371 O.2     1  UNL11      -0.1300
     21 O           2.6557   -3.3178   -2.6808 O.2     1  UNL11      -0.3961
     22 C           2.3494   -2.1684   -0.1616 C.ar    1  UNL11      -0.0176
     23 H          -0.9957   -3.0978    0.9854 H       1  UNL11       0.0654
     24 H          -3.2715   -3.8523    0.7004 H       1  UNL11       0.0619
     25 H          -5.0491   -2.1832    0.0582 H       1  UNL11       0.0624
     26 H          -5.6455    0.0734   -0.4726 H       1  UNL11       0.0624
     27 H          -5.0848    2.3985   -0.8000 H       1  UNL11       0.0618
     28 H          -2.7432    3.1599   -0.5040 H       1  UNL11       0.0618
     29 H          -1.0236    1.4536    0.1344 H       1  UNL11       0.0625
     30 H           3.1541   -1.0670    2.8711 H       1  UNL11       0.0626
     31 H           5.3793   -1.9072    2.1487 H       1  UNL11       0.0618
     32 H           5.6316   -2.9203   -0.0850 H       1  UNL11       0.0640
     33 H           1.5040   -2.2565   -0.8420 H       1  UNL11       0.0648
     34 H           1.8236   -2.9974   -2.3930 H       1  UNL11       0.3292
@<TRIPOS>BOND
     1     1     2    2
     2     2     3    1
     3     2    14    1
     4     3     4    1
     5     4     5   ar
     6     5     6   ar
     7     5    23    1
     8     6     7   ar
     9     6    24    1
    10     7     8   ar
    11     7    25    1
    12     8     9   ar
    13     9    10   ar
    14     9    26    1
    15    10    11   ar
    16    10    27    1
    17    11    12   ar
    18    11    28    1
    19    12    13   ar
    20    12    29    1
    21    13     4   ar
    22    13     8   ar
    23    14    15   ar
    24    15    16   ar
    25    15    30    1
    26    16    17   ar
    27    16    31    1
    28    17    18   ar
    29    17    32    1
    30    18    19    1
    31    18    22   ar
    32    19    20    2
    33    19    21    1
    34    22    14   ar
    35    22    33    1
    36    21    34    1
@<TRIPOS>MOLECULE
*****
 34 36 0 0 0
SMALL
GASTEIGER

@<TRIPOS>ATOM
      1 O          -0.2870    1.3819   -0.3370 O.2     1  UNL11      -0.2445
      2 C           0.4726    0.4445    0.0325 C.2     1  UNL11       0.3445
      3 O          -0.0968   -0.6044    0.6899 O.3     1  UNL11      -0.4217
      4 C          -1.3726   -1.0755    0.5391 C.ar    1  UNL11       0.1396
      5 C          -1.7527   -2.3880    0.7120 C.ar    1  UNL11      -0.0186
      6 C          -3.0682   -2.8034    0.5435 C.ar    1  UNL11      -0.0577
      7 C          -4.0259   -1.8786    0.1927 C.ar    1  UNL11      -0.0538
      8 C          -3.6880   -0.5562    0.0101 C.ar    1  UNL11      -0.0144
      9 C          -4.6277    0.4028   -0.3437 C.ar    1  UNL11      -0.0539
     10 C          -4.2811    1.7263   -0.5249 C.ar    1  UNL11      -0.0612
     11 C          -2.9739    2.1165   -0.3532 C.ar    1  UNL11      -0.0611
     12 C          -2.0447    1.1615   -0.0022 C.ar    1  UNL11      -0.0505
     13 C          -2.3576   -0.1744    0.1877 C.ar    1  UNL11       0.0245
     14 C           1.8933    0.5580   -0.2722 C.ar    1  UNL11       0.0616
     15 C           2.3162    1.2500   -1.3855 C.ar    1  UNL11      -0.0476
     16 C           3.6606    1.3754   -1.7020 C.ar    1  UNL11      -0.0588
     17 C           4.6222    0.8056   -0.9036 C.ar    1  UNL11      -0.0316
     18 C           4.2193    0.1079    0.2164 C.ar    1  UNL11       0.1224
     19 N           5.1942   -0.4925    1.0608 N.4     1  UNL11       0.0060
     20 O           6.3932   -0.4029    0.8106 O.2     1  UNL11      -0.1300
     21 O           4.7787   -1.1818    2.1721 O.2     1  UNL11      -0.3961
     22 C           2.8651   -0.0094    0.5213 C.ar    1  UNL11      -0.0176
     23 H          -0.9957   -3.0978    0.9854 H       1  UNL11       0.0654
     24 H          -3.2715   -3.8523    0.7004 H       1  UNL11       0.0619
     25 H          -5.0491   -2.1832    0.0582 H       1  UNL11       0.0624
     26 H          -5.6455    0.0734   -0.4726 H       1  UNL11       0.0624
     27 H          -5.0848    2.3985   -0.8000 H       1  UNL11       0.0618
     28 H          -2.7432    3.1599   -0.5040 H       1  UNL11       0.0618
     29 H          -1.0236    1.4536    0.1344 H       1  UNL11       0.0625
     30 H           1.5870    1.7045   -2.0256 H       1  UNL11       0.0626
     31 H           4.0021    1.9171   -2.5741 H       1  UNL11       0.0618
     32 H           5.6814    0.8717   -1.1022 H       1  UNL11       0.0640
     33 H           2.5711   -0.5647    1.4105 H       1  UNL11       0.0648
     34 H           3.8645   -1.2517    2.3654 H       1  UNL11       0.3292
@<TRIPOS>BOND
     1     1     2    2
     2     2     3    1
     3     2    14    1
     4     3     4    1
     5     4     5   ar
     6     5     6   ar
     7     5    23    1
     8     6     7   ar
     9     6    24    1
    10     7     8   ar
    11     7    25    1
    12     8     9   ar
    13     9    10   ar
    14     9    26    1
    15    10    11   ar
    16    10    27    1
    17    11    12   ar
    18    11    28    1
    19    12    13   ar
    20    12    29    1
    21    13     4   ar
    22    13     8   ar
    23    14    15   ar
    24    15    16   ar
    25    15    30    1
    26    16    17   ar
    27    16    31    1
    28    17    18   ar
    29    17    32    1
    30    18    19    1
    31    18    22   ar
    32    19    20    2
    33    19    21    1
    34    22    14   ar
    35    22    33    1
    36    21    34    1
@<TRIPOS>MOLECULE
*****
 34 36 0 0 0
SMALL
GASTEIGER

@<TRIPOS>ATOM
      1 O          -0.6449    1.4633    1.3684 O.2     1  UNL11      -0.2445
      2 C           0.2739    0.6422    1.0963 C.2     1  UNL11       0.3445
      3 O          -0.0968   -0.6044    0.6899 O.3     1  UNL11      -0.4217
      4 C          -1.3726   -1.0755    0.5391 C.ar    1  UNL11       0.1396
      5 C          -1.7527   -2.3880    0.7120 C.ar    1  UNL11      -0.0186
      6 C          -3.0682   -2.8034    0.5435 C.ar    1  UNL11      -0.0577
      7 C          -4.0259   -1.8786    0.1927 C.ar    1  UNL11      -0.0538
      8 C          -3.6880   -0.5562    0.0101 C.ar    1  UNL11      -0.0144
      9 C          -4.6277    0.4028   -0.3437 C.ar    1  UNL11      -0.0539
     10 C          -4.2811    1.7263   -0.5249 C.ar    1  UNL11      -0.0612
     11 C          -2.9739    2.1165   -0.3532 C.ar    1  UNL11      -0.0611
     12 C          -2.0447    1.1615   -0.0022 C.ar    1  UNL11      -0.0505
     13 C          -2.3576   -0.1744    0.1877 C.ar    1  UNL11       0.0245
     14 C           1.6532    1.0910    1.2378 C.ar    1  UNL11       0.0616
     15 C           1.9840    2.0500    2.1694 C.ar    1  UNL11      -0.0476
     16 C           3.2871    2.4975    2.3278 C.ar    1  UNL11      -0.0588
     17 C           4.2991    1.9903    1.5497 C.ar    1  UNL11      -0.0316
     18 C           3.9886    1.0287    0.6103 C.ar    1  UNL11       0.1224
     19 N           5.0174    0.4864   -0.2091 N.4     1  UNL11       0.0060
     20 O           4.9555   -0.6670   -0.6263 O.2     1  UNL11      -0.1300
     21 O           6.0939    1.2728   -0.5339 O.2     1  UNL11      -0.3961
     22 C           2.6749    0.5892    0.4630 C.ar    1  UNL11      -0.0176
     23 H          -0.9957   -3.0978    0.9854 H       1  UNL11       0.0654
     24 H          -3.2715   -3.8523    0.7004 H       1  UNL11       0.0619
     25 H          -5.0491   -2.1832    0.0582 H       1  UNL11       0.0624
     26 H          -5.6455    0.0734   -0.4726 H       1  UNL11       0.0624
     27 H          -5.0848    2.3985   -0.8000 H       1  UNL11       0.0618
     28 H          -2.7432    3.1599   -0.5040 H       1  UNL11       0.0618
     29 H          -1.0236    1.4536    0.1344 H       1  UNL11       0.0625
     30 H           1.2139    2.4626    2.7897 H       1  UNL11       0.0626
     31 H           3.5564    3.2502    3.0569 H       1  UNL11       0.0618
     32 H           5.3298    2.3019    1.6302 H       1  UNL11       0.0640
     33 H           2.4539   -0.1705   -0.2850 H       1  UNL11       0.0648
     34 H           6.1436    2.1532   -0.2169 H       1  UNL11       0.3292
@<TRIPOS>BOND
     1     1     2    2
     2     2     3    1
     3     2    14    1
     4     3     4    1
     5     4     5   ar
     6     5     6   ar
     7     5    23    1
     8     6     7   ar
     9     6    24    1
    10     7     8   ar
    11     7    25    1
    12     8     9   ar
    13     9    10   ar
    14     9    26    1
    15    10    11   ar
    16    10    27    1
    17    11    12   ar
    18    11    28    1
    19    12    13   ar
    20    12    29    1
    21    13     4   ar
    22    13     8   ar
    23    14    15   ar
    24    15    16   ar
    25    15    30    1
    26    16    17   ar
    27    16    31    1
    28    17    18   ar
    29    17    32    1
    30    18    19    1
    31    18    22   ar
    32    19    20    2
    33    19    21    1
    34    22    14   ar
    35    22    33    1
    36    21    34    1
@<TRIPOS>MOLECULE
*****
 34 36 0 0 0
SMALL
GASTEIGER

@<TRIPOS>ATOM
      1 O           1.2515   -2.3365    1.1569 O.2     1  UNL11      -0.2445
      2 C           1.0608   -1.2908    0.4769 C.2     1  UNL11       0.3445
      3 O          -0.0968   -0.6044    0.6899 O.3     1  UNL11      -0.4217
      4 C          -1.3726   -1.0755    0.5391 C.ar    1  UNL11       0.1396
      5 C          -1.7527   -2.3880    0.7120 C.ar    1  UNL11      -0.0186
      6 C          -3.0682   -2.8034    0.5435 C.ar    1  UNL11      -0.0577
      7 C          -4.0259   -1.8786    0.1927 C.ar    1  UNL11      -0.0538
      8 C          -3.6880   -0.5562    0.0101 C.ar    1  UNL11      -0.0144
      9 C          -4.6277    0.4028   -0.3437 C.ar    1  UNL11      -0.0539
     10 C          -4.2811    1.7263   -0.5249 C.ar    1  UNL11      -0.0612
     11 C          -2.9739    2.1165   -0.3532 C.ar    1  UNL11      -0.0611
     12 C          -2.0447    1.1615   -0.0022 C.ar    1  UNL11      -0.0505
     13 C          -2.3576   -0.1744    0.1877 C.ar    1  UNL11       0.0245
     14 C           2.0903   -0.9018   -0.4786 C.ar    1  UNL11       0.0616
     15 C           1.7551   -0.2237   -1.6297 C.ar    1  UNL11      -0.0476
     16 C           2.7116    0.1599   -2.5578 C.ar    1  UNL11      -0.0588
     17 C           4.0387   -0.1292   -2.3531 C.ar    1  UNL11      -0.0316
     18 C           4.3954   -0.8080   -1.2061 C.ar    1  UNL11       0.1224
     19 N           5.7629   -1.1205   -0.9690 N.4     1  UNL11       0.0060
     20 O           6.6364   -0.7977   -1.7696 O.2     1  UNL11      -0.1300
     21 O           6.1028   -1.7945    0.1769 O.2     1  UNL11      -0.3961
     22 C           3.4231   -1.1867   -0.2830 C.ar    1  UNL11      -0.0176
     23 H          -0.9957   -3.0978    0.9854 H       1  UNL11       0.0654
     24 H          -3.2715   -3.8523    0.7004 H       1  UNL11       0.0619
     25 H          -5.0491   -2.1832    0.0582 H       1  UNL11       0.0624
     26 H          -5.6455    0.0734   -0.4726 H       1  UNL11       0.0624
     27 H          -5.0848    2.3985   -0.8000 H       1  UNL11       0.0618
     28 H          -2.7432    3.1599   -0.5040 H       1  UNL11       0.0618
     29 H          -1.0236    1.4536    0.1344 H       1  UNL11       0.0625
     30 H           0.7269    0.0147   -1.8143 H       1  UNL11       0.0626
     31 H           2.4578    0.6928   -3.4645 H       1  UNL11       0.0618
     32 H           4.8242    0.1450   -3.0412 H       1  UNL11       0.0640
     33 H           3.7285   -1.7215    0.6148 H       1  UNL11       0.0648
     34 H           5.4383   -2.0420    0.7894 H       1  UNL11       0.3292
@<TRIPOS>BOND
     1     1     2    2
     2     2     3    1
     3     2    14    1
     4     3     4    1
     5     4     5   ar
     6     5     6   ar
     7     5    23    1
     8     6     7   ar
     9     6    24    1
    10     7     8   ar
    11     7    25    1
    12     8     9   ar
    13     9    10   ar
    14     9    26    1
    15    10    11   ar
    16    10    27    1
    17    11    12   ar
    18    11    28    1
    19    12    13   ar
    20    12    29    1
    21    13     4   ar
    22    13     8   ar
    23    14    15   ar
    24    15    16   ar
    25    15    30    1
    26    16    17   ar
    27    16    31    1
    28    17    18   ar
    29    17    32    1
    30    18    19    1
    31    18    22   ar
    32    19    20    2
    33    19    21    1
    34    22    14   ar
    35    22    33    1
    36    21    34    1
@<TRIPOS>MOLECULE
*****
 34 36 0 0 0
SMALL
GASTEIGER

@<TRIPOS>ATOM
      1 O           0.5297    0.3811   -1.2265 O.2     1  UNL11      -0.2445
      2 C           0.4726    0.4445    0.0325 C.2     1  UNL11       0.3445
      3 O          -0.0968   -0.6044    0.6899 O.3     1  UNL11      -0.4217
      4 C          -1.3726   -1.0755    0.5391 C.ar    1  UNL11       0.1396
      5 C          -1.7527   -2.3880    0.7120 C.ar    1  UNL11      -0.0186
      6 C          -3.0682   -2.8034    0.5435 C.ar    1  UNL11      -0.0577
      7 C          -4.0259   -1.8786    0.1927 C.ar    1  UNL11      -0.0538
      8 C          -3.6880   -0.5562    0.0101 C.ar    1  UNL11      -0.0144
      9 C          -4.6277    0.4028   -0.3437 C.ar    1  UNL11      -0.0539
     10 C          -4.2811    1.7263   -0.5249 C.ar    1  UNL11      -0.0612
     11 C          -2.9739    2.1165   -0.3532 C.ar    1  UNL11      -0.0611
     12 C          -2.0447    1.1615   -0.0022 C.ar    1  UNL11      -0.0505
     13 C          -2.3576   -0.1744    0.1877 C.ar    1  UNL11       0.0245
     14 C           1.0183    1.6303    0.6808 C.ar    1  UNL11       0.0616
     15 C           1.0113    2.8462    0.0338 C.ar    1  UNL11      -0.0476
     16 C           1.5231    3.9920    0.6242 C.ar    1  UNL11      -0.0588
     17 C           2.0588    3.9468    1.8882 C.ar    1  UNL11      -0.0316
     18 C           2.0754    2.7382    2.5535 C.ar    1  UNL11       0.1224
     19 N           2.6244    2.6628    3.8637 N.4     1  UNL11       0.0060
     20 O           2.6633    1.5990    4.4760 O.2     1  UNL11      -0.1300
     21 O           3.1168    3.8036    4.4459 O.2     1  UNL11      -0.3961
     22 C           1.5575    1.5958    1.9473 C.ar    1  UNL11      -0.0176
     23 H          -0.9957   -3.0978    0.9854 H       1  UNL11       0.0654
     24 H          -3.2715   -3.8523    0.7004 H       1  UNL11       0.0619
     25 H          -5.0491   -2.1832    0.0582 H       1  UNL11       0.0624
     26 H          -5.6455    0.0734   -0.4726 H       1  UNL11       0.0624
     27 H          -5.0848    2.3985   -0.8000 H       1  UNL11       0.0618
     28 H          -2.7432    3.1599   -0.5040 H       1  UNL11       0.0618
     29 H          -1.0236    1.4536    0.1344 H       1  UNL11       0.0625
     30 H           0.5993    2.9097   -0.9532 H       1  UNL11       0.0626
     31 H           1.5219    4.9513    0.1238 H       1  UNL11       0.0618
     32 H           2.4705    4.8067    2.3951 H       1  UNL11       0.0640
     33 H           1.5814    0.6532    2.4918 H       1  UNL11       0.0648
     34 H           3.0884    4.6167    3.9809 H       1  UNL11       0.3292
@<TRIPOS>BOND
     1     1     2    2
     2     2     3    1
     3     2    14    1
     4     3     4    1
     5     4     5   ar
     6     5     6   ar
     7     5    23    1
     8     6     7   ar
     9     6    24    1
    10     7     8   ar
    11     7    25    1
    12     8     9   ar
    13     9    10   ar
    14     9    26    1
    15    10    11   ar
    16    10    27    1
    17    11    12   ar
    18    11    28    1
    19    12    13   ar
    20    12    29    1
    21    13     4   ar
    22    13     8   ar
    23    14    15   ar
    24    15    16   ar
    25    15    30    1
    26    16    17   ar
    27    16    31    1
    28    17    18   ar
    29    17    32    1
    30    18    19    1
    31    18    22   ar
    32    19    20    2
    33    19    21    1
    34    22    14   ar
    35    22    33    1
    36    21    34    1
@<TRIPOS>MOLECULE
*****
 34 36 0 0 0
SMALL
GASTEIGER

@<TRIPOS>ATOM
      1 O           1.2696   -1.7341   -0.6859 O.2     1  UNL11      -0.2445
      2 C           1.0608   -1.2908    0.4769 C.2     1  UNL11       0.3445
      3 O          -0.0968   -0.6044    0.6899 O.3     1  UNL11      -0.4217
      4 C          -1.3726   -1.0755    0.5391 C.ar    1  UNL11       0.1396
      5 C          -1.7527   -2.3880    0.7120 C.ar    1  UNL11      -0.0186
      6 C          -3.0682   -2.8034    0.5435 C.ar    1  UNL11      -0.0577
      7 C          -4.0259   -1.8786    0.1927 C.ar    1  UNL11      -0.0538
      8 C          -3.6880   -0.5562    0.0101 C.ar    1  UNL11      -0.0144
      9 C          -4.6277    0.4028   -0.3437 C.ar    1  UNL11      -0.0539
     10 C          -4.2811    1.7263   -0.5249 C.ar    1  UNL11      -0.0612
     11 C          -2.9739    2.1165   -0.3532 C.ar    1  UNL11      -0.0611
     12 C          -2.0447    1.1615   -0.0022 C.ar    1  UNL11      -0.0505
     13 C          -2.3576   -0.1744    0.1877 C.ar    1  UNL11       0.0245
     14 C           2.0708   -1.5473    1.4958 C.ar    1  UNL11       0.0616
     15 C           3.3976   -1.6737    1.1484 C.ar    1  UNL11      -0.0476
     16 C           4.3817   -1.9179    2.0946 C.ar    1  UNL11      -0.0588
     17 C           4.0572   -2.0422    3.4236 C.ar    1  UNL11      -0.0316
     18 C           2.7335   -1.9189    3.7924 C.ar    1  UNL11       0.1224
     19 N           2.3694   -2.0434    5.1620 N.4     1  UNL11       0.0060
     20 O           1.4053   -1.4365    5.6208 O.2     1  UNL11      -0.1300
     21 O           3.1140   -2.8579    5.9775 O.2     1  UNL11      -0.3961
     22 C           1.7563   -1.6736    2.8303 C.ar    1  UNL11      -0.0176
     23 H          -0.9957   -3.0978    0.9854 H       1  UNL11       0.0654
     24 H          -3.2715   -3.8523    0.7004 H       1  UNL11       0.0619
     25 H          -5.0491   -2.1832    0.0582 H       1  UNL11       0.0624
     26 H          -5.6455    0.0734   -0.4726 H       1  UNL11       0.0624
     27 H          -5.0848    2.3985   -0.8000 H       1  UNL11       0.0618
     28 H          -2.7432    3.1599   -0.5040 H       1  UNL11       0.0618
     29 H          -1.0236    1.4536    0.1344 H       1  UNL11       0.0625
     30 H           3.6785   -1.5811    0.1185 H       1  UNL11       0.0626
     31 H           5.4263   -2.0186    1.8312 H       1  UNL11       0.0618
     32 H           4.7815   -2.2321    4.2015 H       1  UNL11       0.0640
     33 H           0.7182   -1.5801    3.1452 H       1  UNL11       0.0648
     34 H           3.8501   -3.3221    5.6301 H       1  UNL11       0.3292
@<TRIPOS>BOND
     1     1     2    2
     2     2     3    1
     3     2    14    1
     4     3     4    1
     5     4     5   ar
     6     5     6   ar
     7     5    23    1
     8     6     7   ar
     9     6    24    1
    10     7     8   ar
    11     7    25    1
    12     8     9   ar
    13     9    10   ar
    14     9    26    1
    15    10    11   ar
    16    10    27    1
    17    11    12   ar
    18    11    28    1
    19    12    13   ar
    20    12    29    1
    21    13     4   ar
    22    13     8   ar
    23    14    15   ar
    24    15    16   ar
    25    15    30    1
    26    16    17   ar
    27    16    31    1
    28    17    18   ar
    29    17    32    1
    30    18    19    1
    31    18    22   ar
    32    19    20    2
    33    19    21    1
    34    22    14   ar
    35    22    33    1
    36    21    34    1
@<TRIPOS>MOLECULE
*****
 34 36 0 0 0
SMALL
GASTEIGER

@<TRIPOS>ATOM
      1 O          -0.1212    1.6215    0.4055 O.2     1  UNL11      -0.2445
      2 C           0.2739    0.6422    1.0963 C.2     1  UNL11       0.3445
      3 O          -0.0968   -0.6044    0.6899 O.3     1  UNL11      -0.4217
      4 C          -1.3726   -1.0755    0.5391 C.ar    1  UNL11       0.1396
      5 C          -1.7527   -2.3880    0.7120 C.ar    1  UNL11      -0.0186
      6 C          -3.0682   -2.8034    0.5435 C.ar    1  UNL11      -0.0577
      7 C          -4.0259   -1.8786    0.1927 C.ar    1  UNL11      -0.0538
      8 C          -3.6880   -0.5562    0.0101 C.ar    1  UNL11      -0.0144
      9 C          -4.6277    0.4028   -0.3437 C.ar    1  UNL11      -0.0539
     10 C          -4.2811    1.7263   -0.5249 C.ar    1  UNL11      -0.0612
     11 C          -2.9739    2.1165   -0.3532 C.ar    1  UNL11      -0.0611
     12 C          -2.0447    1.1615   -0.0022 C.ar    1  UNL11      -0.0505
     13 C          -2.3576   -0.1744    0.1877 C.ar    1  UNL11       0.0245
     14 C           1.0922    0.9214    2.2695 C.ar    1  UNL11       0.0616
     15 C           2.0393    0.0153    2.6927 C.ar    1  UNL11      -0.0476
     16 C           2.8331    0.2524    3.8050 C.ar    1  UNL11      -0.0588
     17 C           2.6959    1.4132    4.5263 C.ar    1  UNL11      -0.0316
     18 C           1.7526    2.3340    4.1189 C.ar    1  UNL11       0.1224
     19 N           1.5894    3.5447    4.8478 N.4     1  UNL11       0.0060
     20 O           2.5301    4.0559    5.4494 O.2     1  UNL11      -0.1300
     21 O           0.3557    4.1449    4.8739 O.2     1  UNL11      -0.3961
     22 C           0.9627    2.0817    2.9995 C.ar    1  UNL11      -0.0176
     23 H          -0.9957   -3.0978    0.9854 H       1  UNL11       0.0654
     24 H          -3.2715   -3.8523    0.7004 H       1  UNL11       0.0619
     25 H          -5.0491   -2.1832    0.0582 H       1  UNL11       0.0624
     26 H          -5.6455    0.0734   -0.4726 H       1  UNL11       0.0624
     27 H          -5.0848    2.3985   -0.8000 H       1  UNL11       0.0618
     28 H          -2.7432    3.1599   -0.5040 H       1  UNL11       0.0618
     29 H          -1.0236    1.4536    0.1344 H       1  UNL11       0.0625
     30 H           2.1672   -0.8985    2.1482 H       1  UNL11       0.0626
     31 H           3.5795   -0.4534    4.1448 H       1  UNL11       0.0618
     32 H           3.2863    1.6491    5.3990 H       1  UNL11       0.0640
     33 H           0.2250    2.8231    2.6970 H       1  UNL11       0.0648
     34 H          -0.3638    3.7570    4.4158 H       1  UNL11       0.3292
@<TRIPOS>BOND
     1     1     2    2
     2     2     3    1
     3     2    14    1
     4     3     4    1
     5     4     5   ar
     6     5     6   ar
     7     5    23    1
     8     6     7   ar
     9     6    24    1
    10     7     8   ar
    11     7    25    1
    12     8     9   ar
    13     9    10   ar
    14     9    26    1
    15    10    11   ar
    16    10    27    1
    17    11    12   ar
    18    11    28    1
    19    12    13   ar
    20    12    29    1
    21    13     4   ar
    22    13     8   ar
    23    14    15   ar
    24    15    16   ar
    25    15    30    1
    26    16    17   ar
    27    16    31    1
    28    17    18   ar
    29    17    32    1
    30    18    19    1
    31    18    22   ar
    32    19    20    2
    33    19    21    1
    34    22    14   ar
    35    22    33    1
    36    21    34    1
@<TRIPOS>MOLECULE
*****
 34 36 0 0 0
SMALL
GASTEIGER

@<TRIPOS>ATOM
      1 O           1.0410   -2.5385    0.6640 O.2     1  UNL11      -0.2445
      2 C           1.0608   -1.2908    0.4769 C.2     1  UNL11       0.3445
      3 O          -0.0968   -0.6044    0.6899 O.3     1  UNL11      -0.4217
      4 C          -1.3726   -1.0755    0.5391 C.ar    1  UNL11       0.1396
      5 C          -1.7527   -2.3880    0.7120 C.ar    1  UNL11      -0.0186
      6 C          -3.0682   -2.8034    0.5435 C.ar    1  UNL11      -0.0577
      7 C          -4.0259   -1.8786    0.1927 C.ar    1  UNL11      -0.0538
      8 C          -3.6880   -0.5562    0.0101 C.ar    1  UNL11      -0.0144
      9 C          -4.6277    0.4028   -0.3437 C.ar    1  UNL11      -0.0539
     10 C          -4.2811    1.7263   -0.5249 C.ar    1  UNL11      -0.0612
     11 C          -2.9739    2.1165   -0.3532 C.ar    1  UNL11      -0.0611
     12 C          -2.0447    1.1615   -0.0022 C.ar    1  UNL11      -0.0505
     13 C          -2.3576   -0.1744    0.1877 C.ar    1  UNL11       0.0245
     14 C           2.3158   -0.6853    0.0495 C.ar    1  UNL11       0.0616
     15 C           3.2169   -1.4035   -0.7051 C.ar    1  UNL11      -0.0476
     16 C           4.4190   -0.8553   -1.1267 C.ar    1  UNL11      -0.0588
     17 C           4.7501    0.4371   -0.7997 C.ar    1  UNL11      -0.0316
     18 C           3.8610    1.1735   -0.0442 C.ar    1  UNL11       0.1224
     19 N           4.1788    2.5144    0.3090 N.4     1  UNL11       0.0060
     20 O           3.7658    3.0112    1.3535 O.2     1  UNL11      -0.1300
     21 O           4.9608    3.2585   -0.5381 O.2     1  UNL11      -0.3961
     22 C           2.6573    0.6090    0.3720 C.ar    1  UNL11      -0.0176
     23 H          -0.9957   -3.0978    0.9854 H       1  UNL11       0.0654
     24 H          -3.2715   -3.8523    0.7004 H       1  UNL11       0.0619
     25 H          -5.0491   -2.1832    0.0582 H       1  UNL11       0.0624
     26 H          -5.6455    0.0734   -0.4726 H       1  UNL11       0.0624
     27 H          -5.0848    2.3985   -0.8000 H       1  UNL11       0.0618
     28 H          -2.7432    3.1599   -0.5040 H       1  UNL11       0.0618
     29 H          -1.0236    1.4536    0.1344 H       1  UNL11       0.0625
     30 H           2.9836   -2.4140   -0.9744 H       1  UNL11       0.0626
     31 H           5.1328   -1.4116   -1.7197 H       1  UNL11       0.0618
     32 H           5.6710    0.9136   -1.1006 H       1  UNL11       0.0640
     33 H           1.9714    1.2095    0.9673 H       1  UNL11       0.0648
     34 H           5.2772    2.8820   -1.3356 H       1  UNL11       0.3292
@<TRIPOS>BOND
     1     1     2    2
     2     2     3    1
     3     2    14    1
     4     3     4    1
     5     4     5   ar
     6     5     6   ar
     7     5    23    1
     8     6     7   ar
     9     6    24    1
    10     7     8   ar
    11     7    25    1
    12     8     9   ar
    13     9    10   ar
    14     9    26    1
    15    10    11   ar
    16    10    27    1
    17    11    12   ar
    18    11    28    1
    19    12    13   ar
    20    12    29    1
    21    13     4   ar
    22    13     8   ar
    23    14    15   ar
    24    15    16   ar
    25    15    30    1
    26    16    17   ar
    27    16    31    1
    28    17    18   ar
    29    17    32    1
    30    18    19    1
    31    18    22   ar
    32    19    20    2
    33    19    21    1
    34    22    14   ar
    35    22    33    1
    36    21    34    1
@<TRIPOS>MOLECULE
*****
 34 36 0 0 0
SMALL
GASTEIGER

@<TRIPOS>ATOM
      1 O           0.6143   -1.1222    2.7544 O.2     1  UNL11      -0.2445
      2 C           0.8663   -1.0972    1.5182 C.2     1  UNL11       0.3445
      3 O          -0.0968   -0.6044    0.6899 O.3     1  UNL11      -0.4217
      4 C          -1.3726   -1.0755    0.5391 C.ar    1  UNL11       0.1396
      5 C          -1.7527   -2.3880    0.7120 C.ar    1  UNL11      -0.0186
      6 C          -3.0682   -2.8034    0.5435 C.ar    1  UNL11      -0.0577
      7 C          -4.0259   -1.8786    0.1927 C.ar    1  UNL11      -0.0538
      8 C          -3.6880   -0.5562    0.0101 C.ar    1  UNL11      -0.0144
      9 C          -4.6277    0.4028   -0.3437 C.ar    1  UNL11      -0.0539
     10 C          -4.2811    1.7263   -0.5249 C.ar    1  UNL11      -0.0612
     11 C          -2.9739    2.1165   -0.3532 C.ar    1  UNL11      -0.0611
     12 C          -2.0447    1.1615   -0.0022 C.ar    1  UNL11      -0.0505
     13 C          -2.3576   -0.1744    0.1877 C.ar    1  UNL11       0.0245
     14 C           2.1627   -1.5956    1.0765 C.ar    1  UNL11       0.0616
     15 C           2.3025   -2.1750   -0.1652 C.ar    1  UNL11      -0.0476
     16 C           3.5225   -2.6585   -0.6137 C.ar    1  UNL11      -0.0588
     17 C           4.6417   -2.5723    0.1780 C.ar    1  UNL11      -0.0316
     18 C           4.5228   -1.9953    1.4256 C.ar    1  UNL11       0.1224
     19 N           5.6659   -1.8932    2.2663 N.4     1  UNL11       0.0060
     20 O           6.5755   -2.7160    2.2045 O.2     1  UNL11      -0.1300
     21 O           5.7451   -0.8541    3.1589 O.2     1  UNL11      -0.3961
     22 C           3.2905   -1.5141    1.8622 C.ar    1  UNL11      -0.0176
     23 H          -0.9957   -3.0978    0.9854 H       1  UNL11       0.0654
     24 H          -3.2715   -3.8523    0.7004 H       1  UNL11       0.0619
     25 H          -5.0491   -2.1832    0.0582 H       1  UNL11       0.0624
     26 H          -5.6455    0.0734   -0.4726 H       1  UNL11       0.0624
     27 H          -5.0848    2.3985   -0.8000 H       1  UNL11       0.0618
     28 H          -2.7432    3.1599   -0.5040 H       1  UNL11       0.0618
     29 H          -1.0236    1.4536    0.1344 H       1  UNL11       0.0625
     30 H           1.4455   -2.2550   -0.8033 H       1  UNL11       0.0626
     31 H           3.6420   -3.1151   -1.5874 H       1  UNL11       0.0618
     32 H           5.6151   -2.9319   -0.1202 H       1  UNL11       0.0640
     33 H           3.2210   -1.0627    2.8506 H       1  UNL11       0.0648
     34 H           5.0525   -0.2249    3.2082 H       1  UNL11       0.3292
@<TRIPOS>BOND
     1     1     2    2
     2     2     3    1
     3     2    14    1
     4     3     4    1
     5     4     5   ar
     6     5     6   ar
     7     5    23    1
     8     6     7   ar
     9     6    24    1
    10     7     8   ar
    11     7    25    1
    12     8     9   ar
    13     9    10   ar
    14     9    26    1
    15    10    11   ar
    16    10    27    1
    17    11    12   ar
    18    11    28    1
    19    12    13   ar
    20    12    29    1
    21    13     4   ar
    22    13     8   ar
    23    14    15   ar
    24    15    16   ar
    25    15    30    1
    26    16    17   ar
    27    16    31    1
    28    17    18   ar
    29    17    32    1
    30    18    19    1
    31    18    22   ar
    32    19    20    2
    33    19    21    1
    34    22    14   ar
    35    22    33    1
    36    21    34    1
@<TRIPOS>MOLECULE
*****
 34 36 0 0 0
SMALL
GASTEIGER

@<TRIPOS>ATOM
      1 O           0.9653   -2.4907    0.0983 O.2     1  UNL11      -0.2445
      2 C           1.0608   -1.2908    0.4769 C.2     1  UNL11       0.3445
      3 O          -0.0968   -0.6044    0.6899 O.3     1  UNL11      -0.4217
      4 C          -1.3726   -1.0755    0.5391 C.ar    1  UNL11       0.1396
      5 C          -1.7527   -2.3880    0.7120 C.ar    1  UNL11      -0.0186
      6 C          -3.0682   -2.8034    0.5435 C.ar    1  UNL11      -0.0577
      7 C          -4.0259   -1.8786    0.1927 C.ar    1  UNL11      -0.0538
      8 C          -3.6880   -0.5562    0.0101 C.ar    1  UNL11      -0.0144
      9 C          -4.6277    0.4028   -0.3437 C.ar    1  UNL11      -0.0539
     10 C          -4.2811    1.7263   -0.5249 C.ar    1  UNL11      -0.0612
     11 C          -2.9739    2.1165   -0.3532 C.ar    1  UNL11      -0.0611
     12 C          -2.0447    1.1615   -0.0022 C.ar    1  UNL11      -0.0505
     13 C          -2.3576   -0.1744    0.1877 C.ar    1  UNL11       0.0245
     14 C           2.3969   -0.7366    0.6557 C.ar    1  UNL11       0.0616
     15 C           3.4510   -1.1954   -0.1029 C.ar    1  UNL11      -0.0476
     16 C           4.7334   -0.6882    0.0439 C.ar    1  UNL11      -0.0588
     17 C           4.9928    0.2996    0.9624 C.ar    1  UNL11      -0.0316
     18 C           3.9505    0.7729    1.7324 C.ar    1  UNL11       0.1224
     19 N           4.1910    1.7957    2.6915 N.4     1  UNL11       0.0060
     20 O           3.3190    2.6090    2.9854 O.2     1  UNL11      -0.1300
     21 O           5.4219    1.8674    3.2939 O.2     1  UNL11      -0.3961
     22 C           2.6676    0.2535    1.5734 C.ar    1  UNL11      -0.0176
     23 H          -0.9957   -3.0978    0.9854 H       1  UNL11       0.0654
     24 H          -3.2715   -3.8523    0.7004 H       1  UNL11       0.0619
     25 H          -5.0491   -2.1832    0.0582 H       1  UNL11       0.0624
     26 H          -5.6455    0.0734   -0.4726 H       1  UNL11       0.0624
     27 H          -5.0848    2.3985   -0.8000 H       1  UNL11       0.0618
     28 H          -2.7432    3.1599   -0.5040 H       1  UNL11       0.0618
     29 H          -1.0236    1.4536    0.1344 H       1  UNL11       0.0625
     30 H           3.2765   -1.9657   -0.8270 H       1  UNL11       0.0626
     31 H           5.5675   -1.0423   -0.5474 H       1  UNL11       0.0618
     32 H           5.9706    0.7302    1.1185 H       1  UNL11       0.0640
     33 H           1.8608    0.6428    2.1923 H       1  UNL11       0.0648
     34 H           6.0890    1.2482    3.0715 H       1  UNL11       0.3292
@<TRIPOS>BOND
     1     1     2    2
     2     2     3    1
     3     2    14    1
     4     3     4    1
     5     4     5   ar
     6     5     6   ar
     7     5    23    1
     8     6     7   ar
     9     6    24    1
    10     7     8   ar
    11     7    25    1
    12     8     9   ar
    13     9    10   ar
    14     9    26    1
    15    10    11   ar
    16    10    27    1
    17    11    12   ar
    18    11    28    1
    19    12    13   ar
    20    12    29    1
    21    13     4   ar
    22    13     8   ar
    23    14    15   ar
    24    15    16   ar
    25    15    30    1
    26    16    17   ar
    27    16    31    1
    28    17    18   ar
    29    17    32    1
    30    18    19    1
    31    18    22   ar
    32    19    20    2
    33    19    21    1
    34    22    14   ar
    35    22    33    1
    36    21    34    1
@<TRIPOS>MOLECULE
*****
 34 36 0 0 0
SMALL
GASTEIGER

@<TRIPOS>ATOM
      1 O          -0.2387    1.0602   -0.8085 O.2     1  UNL11      -0.2445
      2 C           0.4726    0.4445    0.0325 C.2     1  UNL11       0.3445
      3 O          -0.0968   -0.6044    0.6899 O.3     1  UNL11      -0.4217
      4 C          -1.3726   -1.0755    0.5391 C.ar    1  UNL11       0.1396
      5 C          -1.7527   -2.3880    0.7120 C.ar    1  UNL11      -0.0186
      6 C          -3.0682   -2.8034    0.5435 C.ar    1  UNL11      -0.0577
      7 C          -4.0259   -1.8786    0.1927 C.ar    1  UNL11      -0.0538
      8 C          -3.6880   -0.5562    0.0101 C.ar    1  UNL11      -0.0144
      9 C          -4.6277    0.4028   -0.3437 C.ar    1  UNL11      -0.0539
     10 C          -4.2811    1.7263   -0.5249 C.ar    1  UNL11      -0.0612
     11 C          -2.9739    2.1165   -0.3532 C.ar    1  UNL11      -0.0611
     12 C          -2.0447    1.1615   -0.0022 C.ar    1  UNL11      -0.0505
     13 C          -2.3576   -0.1744    0.1877 C.ar    1  UNL11       0.0245
     14 C           1.8415    0.9026    0.2329 C.ar    1  UNL11       0.0616
     15 C           2.1688    2.2280    0.0500 C.ar    1  UNL11      -0.0476
     16 C           3.4621    2.6942    0.2330 C.ar    1  UNL11      -0.0588
     17 C           4.4675    1.8362    0.6070 C.ar    1  UNL11      -0.0316
     18 C           4.1604    0.5044    0.7952 C.ar    1  UNL11       0.1224
     19 N           5.1825   -0.4062    1.1826 N.4     1  UNL11       0.0060
     20 O           4.9282   -1.3919    1.8695 O.2     1  UNL11      -0.1300
     21 O           6.4721   -0.1712    0.7771 O.2     1  UNL11      -0.3961
     22 C           2.8565    0.0510    0.6077 C.ar    1  UNL11      -0.0176
     23 H          -0.9957   -3.0978    0.9854 H       1  UNL11       0.0654
     24 H          -3.2715   -3.8523    0.7004 H       1  UNL11       0.0619
     25 H          -5.0491   -2.1832    0.0582 H       1  UNL11       0.0624
     26 H          -5.6455    0.0734   -0.4726 H       1  UNL11       0.0624
     27 H          -5.0848    2.3985   -0.8000 H       1  UNL11       0.0618
     28 H          -2.7432    3.1599   -0.5040 H       1  UNL11       0.0618
     29 H          -1.0236    1.4536    0.1344 H       1  UNL11       0.0625
     30 H           1.4037    2.9190   -0.2418 H       1  UNL11       0.0626
     31 H           3.7285    3.7333    0.0917 H       1  UNL11       0.0618
     32 H           5.4904    2.1445    0.7631 H       1  UNL11       0.0640
     33 H           2.6381   -1.0044    0.7622 H       1  UNL11       0.0648
     34 H           6.6689    0.5801    0.2529 H       1  UNL11       0.3292
@<TRIPOS>BOND
     1     1     2    2
     2     2     3    1
     3     2    14    1
     4     3     4    1
     5     4     5   ar
     6     5     6   ar
     7     5    23    1
     8     6     7   ar
     9     6    24    1
    10     7     8   ar
    11     7    25    1
    12     8     9   ar
    13     9    10   ar
    14     9    26    1
    15    10    11   ar
    16    10    27    1
    17    11    12   ar
    18    11    28    1
    19    12    13   ar
    20    12    29    1
    21    13     4   ar
    22    13     8   ar
    23    14    15   ar
    24    15    16   ar
    25    15    30    1
    26    16    17   ar
    27    16    31    1
    28    17    18   ar
    29    17    32    1
    30    18    19    1
    31    18    22   ar
    32    19    20    2
    33    19    21    1
    34    22    14   ar
    35    22    33    1
    36    21    34    1
@<TRIPOS>MOLECULE
*****
 34 36 0 0 0
SMALL
GASTEIGER

@<TRIPOS>ATOM
      1 O           0.8339   -2.3313    1.7798 O.2     1  UNL11      -0.2445
      2 C           0.8663   -1.0972    1.5182 C.2     1  UNL11       0.3445
      3 O          -0.0968   -0.6044    0.6899 O.3     1  UNL11      -0.4217
      4 C          -1.3726   -1.0755    0.5391 C.ar    1  UNL11       0.1396
      5 C          -1.7527   -2.3880    0.7120 C.ar    1  UNL11      -0.0186
      6 C          -3.0682   -2.8034    0.5435 C.ar    1  UNL11      -0.0577
      7 C          -4.0259   -1.8786    0.1927 C.ar    1  UNL11      -0.0538
      8 C          -3.6880   -0.5562    0.0101 C.ar    1  UNL11      -0.0144
      9 C          -4.6277    0.4028   -0.3437 C.ar    1  UNL11      -0.0539
     10 C          -4.2811    1.7263   -0.5249 C.ar    1  UNL11      -0.0612
     11 C          -2.9739    2.1165   -0.3532 C.ar    1  UNL11      -0.0611
     12 C          -2.0447    1.1615   -0.0022 C.ar    1  UNL11      -0.0505
     13 C          -2.3576   -0.1744    0.1877 C.ar    1  UNL11       0.0245
     14 C           1.9273   -0.3003    2.1208 C.ar    1  UNL11       0.0616
     15 C           2.4215    0.8100    1.4726 C.ar    1  UNL11      -0.0476
     16 C           3.4305    1.5882    2.0200 C.ar    1  UNL11      -0.0588
     17 C           3.9735    1.2699    3.2409 C.ar    1  UNL11      -0.0316
     18 C           3.4925    0.1613    3.9065 C.ar    1  UNL11       0.1224
     19 N           4.0371   -0.1914    5.1726 N.4     1  UNL11       0.0060
     20 O           4.0812   -1.3619    5.5415 O.2     1  UNL11      -0.1300
     21 O           4.5191    0.8002    5.9895 O.2     1  UNL11      -0.3961
     22 C           2.4785   -0.6106    3.3438 C.ar    1  UNL11      -0.0176
     23 H          -0.9957   -3.0978    0.9854 H       1  UNL11       0.0654
     24 H          -3.2715   -3.8523    0.7004 H       1  UNL11       0.0619
     25 H          -5.0491   -2.1832    0.0582 H       1  UNL11       0.0624
     26 H          -5.6455    0.0734   -0.4726 H       1  UNL11       0.0624
     27 H          -5.0848    2.3985   -0.8000 H       1  UNL11       0.0618
     28 H          -2.7432    3.1599   -0.5040 H       1  UNL11       0.0618
     29 H          -1.0236    1.4536    0.1344 H       1  UNL11       0.0625
     30 H           2.0157    1.0810    0.5186 H       1  UNL11       0.0626
     31 H           3.8248    2.4620    1.5183 H       1  UNL11       0.0618
     32 H           4.7597    1.8396    3.7133 H       1  UNL11       0.0640
     33 H           2.1149   -1.4809    3.8878 H       1  UNL11       0.0648
     34 H           4.4867    1.6941    5.7106 H       1  UNL11       0.3292
@<TRIPOS>BOND
     1     1     2    2
     2     2     3    1
     3     2    14    1
     4     3     4    1
     5     4     5   ar
     6     5     6   ar
     7     5    23    1
     8     6     7   ar
     9     6    24    1
    10     7     8   ar
    11     7    25    1
    12     8     9   ar
    13     9    10   ar
    14     9    26    1
    15    10    11   ar
    16    10    27    1
    17    11    12   ar
    18    11    28    1
    19    12    13   ar
    20    12    29    1
    21    13     4   ar
    22    13     8   ar
    23    14    15   ar
    24    15    16   ar
    25    15    30    1
    26    16    17   ar
    27    16    31    1
    28    17    18   ar
    29    17    32    1
    30    18    19    1
    31    18    22   ar
    32    19    20    2
    33    19    21    1
    34    22    14   ar
    35    22    33    1
    36    21    34    1
@<TRIPOS>MOLECULE
*****
 34 36 0 0 0
SMALL
GASTEIGER

@<TRIPOS>ATOM
      1 O           0.9653   -2.4907    0.0983 O.2     1  UNL11      -0.2445
      2 C           1.0608   -1.2908    0.4769 C.2     1  UNL11       0.3445
      3 O          -0.0968   -0.6044    0.6899 O.3     1  UNL11      -0.4217
      4 C          -1.3726   -1.0755    0.5391 C.ar    1  UNL11       0.1396
      5 C          -1.7527   -2.3880    0.7120 C.ar    1  UNL11      -0.0186
      6 C          -3.0682   -2.8034    0.5435 C.ar    1  UNL11      -0.0577
      7 C          -4.0259   -1.8786    0.1927 C.ar    1  UNL11      -0.0538
      8 C          -3.6880   -0.5562    0.0101 C.ar    1  UNL11      -0.0144
      9 C          -4.6277    0.4028   -0.3437 C.ar    1  UNL11      -0.0539
     10 C          -4.2811    1.7263   -0.5249 C.ar    1  UNL11      -0.0612
     11 C          -2.9739    2.1165   -0.3532 C.ar    1  UNL11      -0.0611
     12 C          -2.0447    1.1615   -0.0022 C.ar    1  UNL11      -0.0505
     13 C          -2.3576   -0.1744    0.1877 C.ar    1  UNL11       0.0245
     14 C           2.3969   -0.7366    0.6557 C.ar    1  UNL11       0.0616
     15 C           2.6270    0.2434    1.5957 C.ar    1  UNL11      -0.0476
     16 C           3.8867    0.7902    1.7893 C.ar    1  UNL11      -0.0588
     17 C           4.9557    0.3646    1.0391 C.ar    1  UNL11      -0.0316
     18 C           4.7462   -0.6164    0.0918 C.ar    1  UNL11       0.1224
     19 N           5.8357   -1.0758   -0.6993 N.4     1  UNL11       0.0060
     20 O           5.8748   -2.2297   -1.1179 O.2     1  UNL11      -0.1300
     21 O           6.8564   -0.2076   -0.9950 O.2     1  UNL11      -0.3961
     22 C           3.4750   -1.1562   -0.0911 C.ar    1  UNL11      -0.0176
     23 H          -0.9957   -3.0978    0.9854 H       1  UNL11       0.0654
     24 H          -3.2715   -3.8523    0.7004 H       1  UNL11       0.0619
     25 H          -5.0491   -2.1832    0.0582 H       1  UNL11       0.0624
     26 H          -5.6455    0.0734   -0.4726 H       1  UNL11       0.0624
     27 H          -5.0848    2.3985   -0.8000 H       1  UNL11       0.0618
     28 H          -2.7432    3.1599   -0.5040 H       1  UNL11       0.0618
     29 H          -1.0236    1.4536    0.1344 H       1  UNL11       0.0625
     30 H           1.8107    0.5938    2.1948 H       1  UNL11       0.0626
     31 H           4.0770    1.5602    2.5253 H       1  UNL11       0.0618
     32 H           5.9565    0.7549    1.1474 H       1  UNL11       0.0640
     33 H           3.3339   -1.9293   -0.8446 H       1  UNL11       0.0648
     34 H           6.8291    0.6733   -0.6770 H       1  UNL11       0.3292
@<TRIPOS>BOND
     1     1     2    2
     2     2     3    1
     3     2    14    1
     4     3     4    1
     5     4     5   ar
     6     5     6   ar
     7     5    23    1
     8     6     7   ar
     9     6    24    1
    10     7     8   ar
    11     7    25    1
    12     8     9   ar
    13     9    10   ar
    14     9    26    1
    15    10    11   ar
    16    10    27    1
    17    11    12   ar
    18    11    28    1
    19    12    13   ar
    20    12    29    1
    21    13     4   ar
    22    13     8   ar
    23    14    15   ar
    24    15    16   ar
    25    15    30    1
    26    16    17   ar
    27    16    31    1
    28    17    18   ar
    29    17    32    1
    30    18    19    1
    31    18    22   ar
    32    19    20    2
    33    19    21    1
    34    22    14   ar
    35    22    33    1
    36    21    34    1
@<TRIPOS>MOLECULE
*****
 34 36 0 0 0
SMALL
GASTEIGER

@<TRIPOS>ATOM
      1 O          -0.0567    1.5805    0.1794 O.2     1  UNL11      -0.2445
      2 C           0.4726    0.4445    0.0325 C.2     1  UNL11       0.3445
      3 O          -0.0968   -0.6044    0.6899 O.3     1  UNL11      -0.4217
      4 C          -1.3726   -1.0755    0.5391 C.ar    1  UNL11       0.1396
      5 C          -1.7527   -2.3880    0.7120 C.ar    1  UNL11      -0.0186
      6 C          -3.0682   -2.8034    0.5435 C.ar    1  UNL11      -0.0577
      7 C          -4.0259   -1.8786    0.1927 C.ar    1  UNL11      -0.0538
      8 C          -3.6880   -0.5562    0.0101 C.ar    1  UNL11      -0.0144
      9 C          -4.6277    0.4028   -0.3437 C.ar    1  UNL11      -0.0539
     10 C          -4.2811    1.7263   -0.5249 C.ar    1  UNL11      -0.0612
     11 C          -2.9739    2.1165   -0.3532 C.ar    1  UNL11      -0.0611
     12 C          -2.0447    1.1615   -0.0022 C.ar    1  UNL11      -0.0505
     13 C          -2.3576   -0.1744    0.1877 C.ar    1  UNL11       0.0245
     14 C           1.6464    0.3451   -0.8255 C.ar    1  UNL11       0.0616
     15 C           2.5072    1.4122   -0.9586 C.ar    1  UNL11      -0.0476
     16 C           3.6321    1.3483   -1.7673 C.ar    1  UNL11      -0.0588
     17 C           3.9243    0.2038   -2.4682 C.ar    1  UNL11      -0.0316
     18 C           3.0745   -0.8765   -2.3487 C.ar    1  UNL11       0.1224
     19 N           3.3531   -2.0744   -3.0637 N.4     1  UNL11       0.0060
     20 O           3.0198   -3.1705   -2.6213 O.2     1  UNL11      -0.1300
     21 O           4.0062   -1.9944   -4.2679 O.2     1  UNL11      -0.3961
     22 C           1.9483   -0.7973   -1.5324 C.ar    1  UNL11      -0.0176
     23 H          -0.9957   -3.0978    0.9854 H       1  UNL11       0.0654
     24 H          -3.2715   -3.8523    0.7004 H       1  UNL11       0.0619
     25 H          -5.0491   -2.1832    0.0582 H       1  UNL11       0.0624
     26 H          -5.6455    0.0734   -0.4726 H       1  UNL11       0.0624
     27 H          -5.0848    2.3985   -0.8000 H       1  UNL11       0.0618
     28 H          -2.7432    3.1599   -0.5040 H       1  UNL11       0.0618
     29 H          -1.0236    1.4536    0.1344 H       1  UNL11       0.0625
     30 H           2.3030    2.3173   -0.4228 H       1  UNL11       0.0626
     31 H           4.3138    2.1812   -1.8779 H       1  UNL11       0.0618
     32 H           4.7851    0.0990   -3.1115 H       1  UNL11       0.0640
     33 H           1.2923   -1.6626   -1.4538 H       1  UNL11       0.0648
     34 H           4.2616   -1.1594   -4.6077 H       1  UNL11       0.3292
@<TRIPOS>BOND
     1     1     2    2
     2     2     3    1
     3     2    14    1
     4     3     4    1
     5     4     5   ar
     6     5     6   ar
     7     5    23    1
     8     6     7   ar
     9     6    24    1
    10     7     8   ar
    11     7    25    1
    12     8     9   ar
    13     9    10   ar
    14     9    26    1
    15    10    11   ar
    16    10    27    1
    17    11    12   ar
    18    11    28    1
    19    12    13   ar
    20    12    29    1
    21    13     4   ar
    22    13     8   ar
    23    14    15   ar
    24    15    16   ar
    25    15    30    1
    26    16    17   ar
    27    16    31    1
    28    17    18   ar
    29    17    32    1
    30    18    19    1
    31    18    22   ar
    32    19    20    2
    33    19    21    1
    34    22    14   ar
    35    22    33    1
    36    21    34    1
@<TRIPOS>MOLECULE
*****
 34 36 0 0 0
SMALL
GASTEIGER

@<TRIPOS>ATOM
      1 O           1.2696   -1.7341   -0.6859 O.2     1  UNL11      -0.2445
      2 C           1.0608   -1.2908    0.4769 C.2     1  UNL11       0.3445
      3 O          -0.0968   -0.6044    0.6899 O.3     1  UNL11      -0.4217
      4 C          -1.3726   -1.0755    0.5391 C.ar    1  UNL11       0.1396
      5 C          -1.7527   -2.3880    0.7120 C.ar    1  UNL11      -0.0186
      6 C          -3.0682   -2.8034    0.5435 C.ar    1  UNL11      -0.0577
      7 C          -4.0259   -1.8786    0.1927 C.ar    1  UNL11      -0.0538
      8 C          -3.6880   -0.5562    0.0101 C.ar    1  UNL11      -0.0144
      9 C          -4.6277    0.4028   -0.3437 C.ar    1  UNL11      -0.0539
     10 C          -4.2811    1.7263   -0.5249 C.ar    1  UNL11      -0.0612
     11 C          -2.9739    2.1165   -0.3532 C.ar    1  UNL11      -0.0611
     12 C          -2.0447    1.1615   -0.0022 C.ar    1  UNL11      -0.0505
     13 C          -2.3576   -0.1744    0.1877 C.ar    1  UNL11       0.0245
     14 C           2.0708   -1.5473    1.4958 C.ar    1  UNL11       0.0616
     15 C           3.3976   -1.6737    1.1484 C.ar    1  UNL11      -0.0476
     16 C           4.3817   -1.9179    2.0946 C.ar    1  UNL11      -0.0588
     17 C           4.0572   -2.0422    3.4236 C.ar    1  UNL11      -0.0316
     18 C           2.7335   -1.9189    3.7924 C.ar    1  UNL11       0.1224
     19 N           2.3694   -2.0434    5.1620 N.4     1  UNL11       0.0060
     20 O           3.1482   -1.7281    6.0577 O.2     1  UNL11      -0.1300
     21 O           1.1241   -2.5251    5.4787 O.2     1  UNL11      -0.3961
     22 C           1.7563   -1.6736    2.8303 C.ar    1  UNL11      -0.0176
     23 H          -0.9957   -3.0978    0.9854 H       1  UNL11       0.0654
     24 H          -3.2715   -3.8523    0.7004 H       1  UNL11       0.0619
     25 H          -5.0491   -2.1832    0.0582 H       1  UNL11       0.0624
     26 H          -5.6455    0.0734   -0.4726 H       1  UNL11       0.0624
     27 H          -5.0848    2.3985   -0.8000 H       1  UNL11       0.0618
     28 H          -2.7432    3.1599   -0.5040 H       1  UNL11       0.0618
     29 H          -1.0236    1.4536    0.1344 H       1  UNL11       0.0625
     30 H           3.6785   -1.5811    0.1185 H       1  UNL11       0.0626
     31 H           5.4263   -2.0186    1.8312 H       1  UNL11       0.0618
     32 H           4.7815   -2.2321    4.2015 H       1  UNL11       0.0640
     33 H           0.7182   -1.5801    3.1452 H       1  UNL11       0.0648
     34 H           0.5279   -2.7664    4.7973 H       1  UNL11       0.3292
@<TRIPOS>BOND
     1     1     2    2
     2     2     3    1
     3     2    14    1
     4     3     4    1
     5     4     5   ar
     6     5     6   ar
     7     5    23    1
     8     6     7   ar
     9     6    24    1
    10     7     8   ar
    11     7    25    1
    12     8     9   ar
    13     9    10   ar
    14     9    26    1
    15    10    11   ar
    16    10    27    1
    17    11    12   ar
    18    11    28    1
    19    12    13   ar
    20    12    29    1
    21    13     4   ar
    22    13     8   ar
    23    14    15   ar
    24    15    16   ar
    25    15    30    1
    26    16    17   ar
    27    16    31    1
    28    17    18   ar
    29    17    32    1
    30    18    19    1
    31    18    22   ar
    32    19    20    2
    33    19    21    1
    34    22    14   ar
    35    22    33    1
    36    21    34    1
@<TRIPOS>MOLECULE
*****
 34 36 0 0 0
SMALL
GASTEIGER

@<TRIPOS>ATOM
      1 O           0.5297    0.3811   -1.2265 O.2     1  UNL11      -0.2445
      2 C           0.4726    0.4445    0.0325 C.2     1  UNL11       0.3445
      3 O          -0.0968   -0.6044    0.6899 O.3     1  UNL11      -0.4217
      4 C          -1.3726   -1.0755    0.5391 C.ar    1  UNL11       0.1396
      5 C          -1.7527   -2.3880    0.7120 C.ar    1  UNL11      -0.0186
      6 C          -3.0682   -2.8034    0.5435 C.ar    1  UNL11      -0.0577
      7 C          -4.0259   -1.8786    0.1927 C.ar    1  UNL11      -0.0538
      8 C          -3.6880   -0.5562    0.0101 C.ar    1  UNL11      -0.0144
      9 C          -4.6277    0.4028   -0.3437 C.ar    1  UNL11      -0.0539
     10 C          -4.2811    1.7263   -0.5249 C.ar    1  UNL11      -0.0612
     11 C          -2.9739    2.1165   -0.3532 C.ar    1  UNL11      -0.0611
     12 C          -2.0447    1.1615   -0.0022 C.ar    1  UNL11      -0.0505
     13 C          -2.3576   -0.1744    0.1877 C.ar    1  UNL11       0.0245
     14 C           1.0183    1.6303    0.6808 C.ar    1  UNL11       0.0616
     15 C           2.0604    2.3237    0.1063 C.ar    1  UNL11      -0.0476
     16 C           2.6011    3.4552    0.6987 C.ar    1  UNL11      -0.0588
     17 C           2.1061    3.9232    1.8915 C.ar    1  UNL11      -0.0316
     18 C           1.0622    3.2427    2.4836 C.ar    1  UNL11       0.1224
     19 N           0.5303    3.7055    3.7192 N.4     1  UNL11       0.0060
     20 O          -0.6514    3.5341    4.0063 O.2     1  UNL11      -0.1300
     21 O           1.3594    4.3537    4.5998 O.2     1  UNL11      -0.3961
     22 C           0.5296    2.1076    1.8763 C.ar    1  UNL11      -0.0176
     23 H          -0.9957   -3.0978    0.9854 H       1  UNL11       0.0654
     24 H          -3.2715   -3.8523    0.7004 H       1  UNL11       0.0619
     25 H          -5.0491   -2.1832    0.0582 H       1  UNL11       0.0624
     26 H          -5.6455    0.0734   -0.4726 H       1  UNL11       0.0624
     27 H          -5.0848    2.3985   -0.8000 H       1  UNL11       0.0618
     28 H          -2.7432    3.1599   -0.5040 H       1  UNL11       0.0618
     29 H          -1.0236    1.4536    0.1344 H       1  UNL11       0.0625
     30 H           2.4656    1.9804   -0.8243 H       1  UNL11       0.0626
     31 H           3.4195    4.0064    0.2549 H       1  UNL11       0.0618
     32 H           2.4884    4.7977    2.3965 H       1  UNL11       0.0640
     33 H          -0.2941    1.5871    2.3623 H       1  UNL11       0.0648
     34 H           2.2615    4.4858    4.3833 H       1  UNL11       0.3292
@<TRIPOS>BOND
     1     1     2    2
     2     2     3    1
     3     2    14    1
     4     3     4    1
     5     4     5   ar
     6     5     6   ar
     7     5    23    1
     8     6     7   ar
     9     6    24    1
    10     7     8   ar
    11     7    25    1
    12     8     9   ar
    13     9    10   ar
    14     9    26    1
    15    10    11   ar
    16    10    27    1
    17    11    12   ar
    18    11    28    1
    19    12    13   ar
    20    12    29    1
    21    13     4   ar
    22    13     8   ar
    23    14    15   ar
    24    15    16   ar
    25    15    30    1
    26    16    17   ar
    27    16    31    1
    28    17    18   ar
    29    17    32    1
    30    18    19    1
    31    18    22   ar
    32    19    20    2
    33    19    21    1
    34    22    14   ar
    35    22    33    1
    36    21    34    1
@<TRIPOS>MOLECULE
*****
 34 36 0 0 0
SMALL
GASTEIGER

@<TRIPOS>ATOM
      1 O           1.0410   -2.5385    0.6640 O.2     1  UNL11      -0.2445
      2 C           1.0608   -1.2908    0.4769 C.2     1  UNL11       0.3445
      3 O          -0.0968   -0.6044    0.6899 O.3     1  UNL11      -0.4217
      4 C          -1.3726   -1.0755    0.5391 C.ar    1  UNL11       0.1396
      5 C          -1.7527   -2.3880    0.7120 C.ar    1  UNL11      -0.0186
      6 C          -3.0682   -2.8034    0.5435 C.ar    1  UNL11      -0.0577
      7 C          -4.0259   -1.8786    0.1927 C.ar    1  UNL11      -0.0538
      8 C          -3.6880   -0.5562    0.0101 C.ar    1  UNL11      -0.0144
      9 C          -4.6277    0.4028   -0.3437 C.ar    1  UNL11      -0.0539
     10 C          -4.2811    1.7263   -0.5249 C.ar    1  UNL11      -0.0612
     11 C          -2.9739    2.1165   -0.3532 C.ar    1  UNL11      -0.0611
     12 C          -2.0447    1.1615   -0.0022 C.ar    1  UNL11      -0.0505
     13 C          -2.3576   -0.1744    0.1877 C.ar    1  UNL11       0.0245
     14 C           2.3158   -0.6853    0.0495 C.ar    1  UNL11       0.0616
     15 C           2.4020    0.6741   -0.1548 C.ar    1  UNL11      -0.0476
     16 C           3.5817    1.2795   -0.5613 C.ar    1  UNL11      -0.0588
     17 C           4.7133    0.5308   -0.7749 C.ar    1  UNL11      -0.0316
     18 C           4.6479   -0.8329   -0.5759 C.ar    1  UNL11       0.1224
     19 N           5.8051   -1.6323   -0.7899 N.4     1  UNL11       0.0060
     20 O           5.7115   -2.7984   -1.1635 O.2     1  UNL11      -0.1300
     21 O           7.0434   -1.0826   -0.5725 O.2     1  UNL11      -0.3961
     22 C           3.4557   -1.4266   -0.1673 C.ar    1  UNL11      -0.0176
     23 H          -0.9957   -3.0978    0.9854 H       1  UNL11       0.0654
     24 H          -3.2715   -3.8523    0.7004 H       1  UNL11       0.0619
     25 H          -5.0491   -2.1832    0.0582 H       1  UNL11       0.0624
     26 H          -5.6455    0.0734   -0.4726 H       1  UNL11       0.0624
     27 H          -5.0848    2.3985   -0.8000 H       1  UNL11       0.0618
     28 H          -2.7432    3.1599   -0.5040 H       1  UNL11       0.0618
     29 H          -1.0236    1.4536    0.1344 H       1  UNL11       0.0625
     30 H           1.5341    1.2818    0.0046 H       1  UNL11       0.0626
     31 H           3.6589    2.3463   -0.7242 H       1  UNL11       0.0618
     32 H           5.6570    0.9491   -1.0914 H       1  UNL11       0.0640
     33 H           3.4281   -2.5045   -0.0167 H       1  UNL11       0.0648
     34 H           7.1177   -0.1932   -0.2874 H       1  UNL11       0.3292
@<TRIPOS>BOND
     1     1     2    2
     2     2     3    1
     3     2    14    1
     4     3     4    1
     5     4     5   ar
     6     5     6   ar
     7     5    23    1
     8     6     7   ar
     9     6    24    1
    10     7     8   ar
    11     7    25    1
    12     8     9   ar
    13     9    10   ar
    14     9    26    1
    15    10    11   ar
    16    10    27    1
    17    11    12   ar
    18    11    28    1
    19    12    13   ar
    20    12    29    1
    21    13     4   ar
    22    13     8   ar
    23    14    15   ar
    24    15    16   ar
    25    15    30    1
    26    16    17   ar
    27    16    31    1
    28    17    18   ar
    29    17    32    1
    30    18    19    1
    31    18    22   ar
    32    19    20    2
    33    19    21    1
    34    22    14   ar
    35    22    33    1
    36    21    34    1
@<TRIPOS>MOLECULE
*****
 34 36 0 0 0
SMALL
GASTEIGER

@<TRIPOS>ATOM
      1 O           0.5297    0.3811   -1.2265 O.2     1  UNL11      -0.2445
      2 C           0.4726    0.4445    0.0325 C.2     1  UNL11       0.3445
      3 O          -0.0968   -0.6044    0.6899 O.3     1  UNL11      -0.4217
      4 C          -1.3726   -1.0755    0.5391 C.ar    1  UNL11       0.1396
      5 C          -1.7527   -2.3880    0.7120 C.ar    1  UNL11      -0.0186
      6 C          -3.0682   -2.8034    0.5435 C.ar    1  UNL11      -0.0577
      7 C          -4.0259   -1.8786    0.1927 C.ar    1  UNL11      -0.0538
      8 C          -3.6880   -0.5562    0.0101 C.ar    1  UNL11      -0.0144
      9 C          -4.6277    0.4028   -0.3437 C.ar    1  UNL11      -0.0539
     10 C          -4.2811    1.7263   -0.5249 C.ar    1  UNL11      -0.0612
     11 C          -2.9739    2.1165   -0.3532 C.ar    1  UNL11      -0.0611
     12 C          -2.0447    1.1615   -0.0022 C.ar    1  UNL11      -0.0505
     13 C          -2.3576   -0.1744    0.1877 C.ar    1  UNL11       0.0245
     14 C           1.0183    1.6303    0.6808 C.ar    1  UNL11       0.0616
     15 C           1.5616    1.5486    1.9438 C.ar    1  UNL11      -0.0476
     16 C           2.0885    2.6588    2.5868 C.ar    1  UNL11      -0.0588
     17 C           2.0836    3.8883    1.9744 C.ar    1  UNL11      -0.0316
     18 C           1.5437    3.9914    0.7090 C.ar    1  UNL11       0.1224
     19 N           1.5255    5.2528    0.0515 N.4     1  UNL11       0.0060
     20 O           1.4548    6.3004    0.6886 O.2     1  UNL11      -0.1300
     21 O           1.5886    5.2904   -1.3187 O.2     1  UNL11      -0.3961
     22 C           1.0182    2.8672    0.0759 C.ar    1  UNL11      -0.0176
     23 H          -0.9957   -3.0978    0.9854 H       1  UNL11       0.0654
     24 H          -3.2715   -3.8523    0.7004 H       1  UNL11       0.0619
     25 H          -5.0491   -2.1832    0.0582 H       1  UNL11       0.0624
     26 H          -5.6455    0.0734   -0.4726 H       1  UNL11       0.0624
     27 H          -5.0848    2.3985   -0.8000 H       1  UNL11       0.0618
     28 H          -2.7432    3.1599   -0.5040 H       1  UNL11       0.0618
     29 H          -1.0236    1.4536    0.1344 H       1  UNL11       0.0625
     30 H           1.5783    0.6015    2.4445 H       1  UNL11       0.0626
     31 H           2.5174    2.6042    3.5787 H       1  UNL11       0.0618
     32 H           2.4797    4.7845    2.4278 H       1  UNL11       0.0640
     33 H           0.5975    2.9729   -0.9227 H       1  UNL11       0.0648
     34 H           1.6426    4.4926   -1.8073 H       1  UNL11       0.3292
@<TRIPOS>BOND
     1     1     2    2
     2     2     3    1
     3     2    14    1
     4     3     4    1
     5     4     5   ar
     6     5     6   ar
     7     5    23    1
     8     6     7   ar
     9     6    24    1
    10     7     8   ar
    11     7    25    1
    12     8     9   ar
    13     9    10   ar
    14     9    26    1
    15    10    11   ar
    16    10    27    1
    17    11    12   ar
    18    11    28    1
    19    12    13   ar
    20    12    29    1
    21    13     4   ar
    22    13     8   ar
    23    14    15   ar
    24    15    16   ar
    25    15    30    1
    26    16    17   ar
    27    16    31    1
    28    17    18   ar
    29    17    32    1
    30    18    19    1
    31    18    22   ar
    32    19    20    2
    33    19    21    1
    34    22    14   ar
    35    22    33    1
    36    21    34    1
@<TRIPOS>MOLECULE
*****
 34 36 0 0 0
SMALL
GASTEIGER

@<TRIPOS>ATOM
      1 O           0.1387    1.2324   -0.5777 O.2     1  UNL11      -0.2445
      2 C           0.3241    0.6832    0.5431 C.2     1  UNL11       0.3445
      3 O          -0.0968   -0.6044    0.6899 O.3     1  UNL11      -0.4217
      4 C          -1.3726   -1.0755    0.5391 C.ar    1  UNL11       0.1396
      5 C          -1.7527   -2.3880    0.7120 C.ar    1  UNL11      -0.0186
      6 C          -3.0682   -2.8034    0.5435 C.ar    1  UNL11      -0.0577
      7 C          -4.0259   -1.8786    0.1927 C.ar    1  UNL11      -0.0538
      8 C          -3.6880   -0.5562    0.0101 C.ar    1  UNL11      -0.0144
      9 C          -4.6277    0.4028   -0.3437 C.ar    1  UNL11      -0.0539
     10 C          -4.2811    1.7263   -0.5249 C.ar    1  UNL11      -0.0612
     11 C          -2.9739    2.1165   -0.3532 C.ar    1  UNL11      -0.0611
     12 C          -2.0447    1.1615   -0.0022 C.ar    1  UNL11      -0.0505
     13 C          -2.3576   -0.1744    0.1877 C.ar    1  UNL11       0.0245
     14 C           0.9714    1.4669    1.5876 C.ar    1  UNL11       0.0616
     15 C           1.7484    0.8508    2.5435 C.ar    1  UNL11      -0.0476
     16 C           2.3771    1.5691    3.5496 C.ar    1  UNL11      -0.0588
     17 C           2.2411    2.9339    3.6229 C.ar    1  UNL11      -0.0316
     18 C           1.4668    3.5703    2.6748 C.ar    1  UNL11       0.1224
     19 N           1.3089    4.9832    2.7270 N.4     1  UNL11       0.0060
     20 O           1.3506    5.5881    3.7950 O.2     1  UNL11      -0.1300
     21 O           1.1068    5.6741    1.5588 O.2     1  UNL11      -0.3961
     22 C           0.8416    2.8352    1.6700 C.ar    1  UNL11      -0.0176
     23 H          -0.9957   -3.0978    0.9854 H       1  UNL11       0.0654
     24 H          -3.2715   -3.8523    0.7004 H       1  UNL11       0.0619
     25 H          -5.0491   -2.1832    0.0582 H       1  UNL11       0.0624
     26 H          -5.6455    0.0734   -0.4726 H       1  UNL11       0.0624
     27 H          -5.0848    2.3985   -0.8000 H       1  UNL11       0.0618
     28 H          -2.7432    3.1599   -0.5040 H       1  UNL11       0.0618
     29 H          -1.0236    1.4536    0.1344 H       1  UNL11       0.0625
     30 H           1.8714   -0.2131    2.5098 H       1  UNL11       0.0626
     31 H           2.9893    1.0938    4.3046 H       1  UNL11       0.0618
     32 H           2.7073    3.5421    4.3836 H       1  UNL11       0.0640
     33 H           0.2355    3.3592    0.9328 H       1  UNL11       0.0648
     34 H           1.0745    5.2151    0.7426 H       1  UNL11       0.3292
@<TRIPOS>BOND
     1     1     2    2
     2     2     3    1
     3     2    14    1
     4     3     4    1
     5     4     5   ar
     6     5     6   ar
     7     5    23    1
     8     6     7   ar
     9     6    24    1
    10     7     8   ar
    11     7    25    1
    12     8     9   ar
    13     9    10   ar
    14     9    26    1
    15    10    11   ar
    16    10    27    1
    17    11    12   ar
    18    11    28    1
    19    12    13   ar
    20    12    29    1
    21    13     4   ar
    22    13     8   ar
    23    14    15   ar
    24    15    16   ar
    25    15    30    1
    26    16    17   ar
    27    16    31    1
    28    17    18   ar
    29    17    32    1
    30    18    19    1
    31    18    22   ar
    32    19    20    2
    33    19    21    1
    34    22    14   ar
    35    22    33    1
    36    21    34    1
@<TRIPOS>MOLECULE
*****
 34 36 0 0 0
SMALL
GASTEIGER

@<TRIPOS>ATOM
      1 O           0.5297    0.3811   -1.2265 O.2     1  UNL11      -0.2445
      2 C           0.4726    0.4445    0.0325 C.2     1  UNL11       0.3445
      3 O          -0.0968   -0.6044    0.6899 O.3     1  UNL11      -0.4217
      4 C          -1.3726   -1.0755    0.5391 C.ar    1  UNL11       0.1396
      5 C          -1.7527   -2.3880    0.7120 C.ar    1  UNL11      -0.0186
      6 C          -3.0682   -2.8034    0.5435 C.ar    1  UNL11      -0.0577
      7 C          -4.0259   -1.8786    0.1927 C.ar    1  UNL11      -0.0538
      8 C          -3.6880   -0.5562    0.0101 C.ar    1  UNL11      -0.0144
      9 C          -4.6277    0.4028   -0.3437 C.ar    1  UNL11      -0.0539
     10 C          -4.2811    1.7263   -0.5249 C.ar    1  UNL11      -0.0612
     11 C          -2.9739    2.1165   -0.3532 C.ar    1  UNL11      -0.0611
     12 C          -2.0447    1.1615   -0.0022 C.ar    1  UNL11      -0.0505
     13 C          -2.3576   -0.1744    0.1877 C.ar    1  UNL11       0.0245
     14 C           1.0183    1.6303    0.6808 C.ar    1  UNL11       0.0616
     15 C           1.5616    1.5486    1.9438 C.ar    1  UNL11      -0.0476
     16 C           2.0885    2.6588    2.5868 C.ar    1  UNL11      -0.0588
     17 C           2.0836    3.8883    1.9744 C.ar    1  UNL11      -0.0316
     18 C           1.5437    3.9914    0.7090 C.ar    1  UNL11       0.1224
     19 N           1.5255    5.2528    0.0515 N.4     1  UNL11       0.0060
     20 O           1.5930    5.3326   -1.1721 O.2     1  UNL11      -0.1300
     21 O           1.4308    6.3953    0.8056 O.2     1  UNL11      -0.3961
     22 C           1.0182    2.8672    0.0759 C.ar    1  UNL11      -0.0176
     23 H          -0.9957   -3.0978    0.9854 H       1  UNL11       0.0654
     24 H          -3.2715   -3.8523    0.7004 H       1  UNL11       0.0619
     25 H          -5.0491   -2.1832    0.0582 H       1  UNL11       0.0624
     26 H          -5.6455    0.0734   -0.4726 H       1  UNL11       0.0624
     27 H          -5.0848    2.3985   -0.8000 H       1  UNL11       0.0618
     28 H          -2.7432    3.1599   -0.5040 H       1  UNL11       0.0618
     29 H          -1.0236    1.4536    0.1344 H       1  UNL11       0.0625
     30 H           1.5783    0.6015    2.4445 H       1  UNL11       0.0626
     31 H           2.5174    2.6042    3.5787 H       1  UNL11       0.0618
     32 H           2.4797    4.7845    2.4278 H       1  UNL11       0.0640
     33 H           0.5975    2.9729   -0.9227 H       1  UNL11       0.0648
     34 H           1.3792    6.3374    1.7394 H       1  UNL11       0.3292
@<TRIPOS>BOND
     1     1     2    2
     2     2     3    1
     3     2    14    1
     4     3     4    1
     5     4     5   ar
     6     5     6   ar
     7     5    23    1
     8     6     7   ar
     9     6    24    1
    10     7     8   ar
    11     7    25    1
    12     8     9   ar
    13     9    10   ar
    14     9    26    1
    15    10    11   ar
    16    10    27    1
    17    11    12   ar
    18    11    28    1
    19    12    13   ar
    20    12    29    1
    21    13     4   ar
    22    13     8   ar
    23    14    15   ar
    24    15    16   ar
    25    15    30    1
    26    16    17   ar
    27    16    31    1
    28    17    18   ar
    29    17    32    1
    30    18    19    1
    31    18    22   ar
    32    19    20    2
    33    19    21    1
    34    22    14   ar
    35    22    33    1
    36    21    34    1
@<TRIPOS>MOLECULE
*****
 34 36 0 0 0
SMALL
GASTEIGER

@<TRIPOS>ATOM
      1 O           0.5297    0.3811   -1.2265 O.2     1  UNL11      -0.2445
      2 C           0.4726    0.4445    0.0325 C.2     1  UNL11       0.3445
      3 O          -0.0968   -0.6044    0.6899 O.3     1  UNL11      -0.4217
      4 C          -1.3726   -1.0755    0.5391 C.ar    1  UNL11       0.1396
      5 C          -1.7527   -2.3880    0.7120 C.ar    1  UNL11      -0.0186
      6 C          -3.0682   -2.8034    0.5435 C.ar    1  UNL11      -0.0577
      7 C          -4.0259   -1.8786    0.1927 C.ar    1  UNL11      -0.0538
      8 C          -3.6880   -0.5562    0.0101 C.ar    1  UNL11      -0.0144
      9 C          -4.6277    0.4028   -0.3437 C.ar    1  UNL11      -0.0539
     10 C          -4.2811    1.7263   -0.5249 C.ar    1  UNL11      -0.0612
     11 C          -2.9739    2.1165   -0.3532 C.ar    1  UNL11      -0.0611
     12 C          -2.0447    1.1615   -0.0022 C.ar    1  UNL11      -0.0505
     13 C          -2.3576   -0.1744    0.1877 C.ar    1  UNL11       0.0245
     14 C           1.0183    1.6303    0.6808 C.ar    1  UNL11       0.0616
     15 C           0.4899    2.0823    1.8698 C.ar    1  UNL11      -0.0476
     16 C           0.9873    3.2071    2.5107 C.ar    1  UNL11      -0.0588
     17 C           2.0352    3.9124    1.9711 C.ar    1  UNL11      -0.0316
     18 C           2.5787    3.4760    0.7804 C.ar    1  UNL11       0.1224
     19 N           3.6648    4.1877    0.1991 N.4     1  UNL11       0.0060
     20 O           3.7966    5.3966    0.3705 O.2     1  UNL11      -0.1300
     21 O           4.5762    3.5034   -0.5651 O.2     1  UNL11      -0.3961
     22 C           2.0683    2.3443    0.1484 C.ar    1  UNL11      -0.0176
     23 H          -0.9957   -3.0978    0.9854 H       1  UNL11       0.0654
     24 H          -3.2715   -3.8523    0.7004 H       1  UNL11       0.0619
     25 H          -5.0491   -2.1832    0.0582 H       1  UNL11       0.0624
     26 H          -5.6455    0.0734   -0.4726 H       1  UNL11       0.0624
     27 H          -5.0848    2.3985   -0.8000 H       1  UNL11       0.0618
     28 H          -2.7432    3.1599   -0.5040 H       1  UNL11       0.0618
     29 H          -1.0236    1.4536    0.1344 H       1  UNL11       0.0625
     30 H          -0.3282    1.5508    2.3129 H       1  UNL11       0.0626
     31 H           0.5788    3.5696    3.4448 H       1  UNL11       0.0618
     32 H           2.4614    4.7937    2.4265 H       1  UNL11       0.0640
     33 H           2.5135    2.0189   -0.7904 H       1  UNL11       0.0648
     34 H           4.4780    2.5810   -0.6975 H       1  UNL11       0.3292
@<TRIPOS>BOND
     1     1     2    2
     2     2     3    1
     3     2    14    1
     4     3     4    1
     5     4     5   ar
     6     5     6   ar
     7     5    23    1
     8     6     7   ar
     9     6    24    1
    10     7     8   ar
    11     7    25    1
    12     8     9   ar
    13     9    10   ar
    14     9    26    1
    15    10    11   ar
    16    10    27    1
    17    11    12   ar
    18    11    28    1
    19    12    13   ar
    20    12    29    1
    21    13     4   ar
    22    13     8   ar
    23    14    15   ar
    24    15    16   ar
    25    15    30    1
    26    16    17   ar
    27    16    31    1
    28    17    18   ar
    29    17    32    1
    30    18    19    1
    31    18    22   ar
    32    19    20    2
    33    19    21    1
    34    22    14   ar
    35    22    33    1
    36    21    34    1
@<TRIPOS>MOLECULE
*****
 34 36 0 0 0
SMALL
GASTEIGER

@<TRIPOS>ATOM
      1 O           0.0596    0.6947   -1.1333 O.2     1  UNL11      -0.2445
      2 C           0.4726    0.4445    0.0325 C.2     1  UNL11       0.3445
      3 O          -0.0968   -0.6044    0.6899 O.3     1  UNL11      -0.4217
      4 C          -1.3726   -1.0755    0.5391 C.ar    1  UNL11       0.1396
      5 C          -1.7527   -2.3880    0.7120 C.ar    1  UNL11      -0.0186
      6 C          -3.0682   -2.8034    0.5435 C.ar    1  UNL11      -0.0577
      7 C          -4.0259   -1.8786    0.1927 C.ar    1  UNL11      -0.0538
      8 C          -3.6880   -0.5562    0.0101 C.ar    1  UNL11      -0.0144
      9 C          -4.6277    0.4028   -0.3437 C.ar    1  UNL11      -0.0539
     10 C          -4.2811    1.7263   -0.5249 C.ar    1  UNL11      -0.0612
     11 C          -2.9739    2.1165   -0.3532 C.ar    1  UNL11      -0.0611
     12 C          -2.0447    1.1615   -0.0022 C.ar    1  UNL11      -0.0505
     13 C          -2.3576   -0.1744    0.1877 C.ar    1  UNL11       0.0245
     14 C           1.5220    1.2942    0.5810 C.ar    1  UNL11       0.0616
     15 C           1.5990    1.5224    1.9371 C.ar    1  UNL11      -0.0476
     16 C           2.5856    2.3259    2.4890 C.ar    1  UNL11      -0.0588
     17 C           3.5271    2.9253    1.6883 C.ar    1  UNL11      -0.0316
     18 C           3.4673    2.7095    0.3269 C.ar    1  UNL11       0.1224
     19 N           4.4298    3.3181   -0.5257 N.4     1  UNL11       0.0060
     20 O           5.3164    4.0367   -0.0719 O.2     1  UNL11      -0.1300
     21 O           4.3588    3.0930   -1.8774 O.2     1  UNL11      -0.3961
     22 C           2.4703    1.8997   -0.2127 C.ar    1  UNL11      -0.0176
     23 H          -0.9957   -3.0978    0.9854 H       1  UNL11       0.0654
     24 H          -3.2715   -3.8523    0.7004 H       1  UNL11       0.0619
     25 H          -5.0491   -2.1832    0.0582 H       1  UNL11       0.0624
     26 H          -5.6455    0.0734   -0.4726 H       1  UNL11       0.0624
     27 H          -5.0848    2.3985   -0.8000 H       1  UNL11       0.0618
     28 H          -2.7432    3.1599   -0.5040 H       1  UNL11       0.0618
     29 H          -1.0236    1.4536    0.1344 H       1  UNL11       0.0625
     30 H           0.8771    1.0670    2.5848 H       1  UNL11       0.0626
     31 H           2.6540    2.5108    3.5528 H       1  UNL11       0.0618
     32 H           4.3160    3.5596    2.0638 H       1  UNL11       0.0640
     33 H           2.4433    1.7439   -1.2899 H       1  UNL11       0.0648
     34 H           3.6834    2.5452   -2.2263 H       1  UNL11       0.3292
@<TRIPOS>BOND
     1     1     2    2
     2     2     3    1
     3     2    14    1
     4     3     4    1
     5     4     5   ar
     6     5     6   ar
     7     5    23    1
     8     6     7   ar
     9     6    24    1
    10     7     8   ar
    11     7    25    1
    12     8     9   ar
    13     9    10   ar
    14     9    26    1
    15    10    11   ar
    16    10    27    1
    17    11    12   ar
    18    11    28    1
    19    12    13   ar
    20    12    29    1
    21    13     4   ar
    22    13     8   ar
    23    14    15   ar
    24    15    16   ar
    25    15    30    1
    26    16    17   ar
    27    16    31    1
    28    17    18   ar
    29    17    32    1
    30    18    19    1
    31    18    22   ar
    32    19    20    2
    33    19    21    1
    34    22    14   ar
    35    22    33    1
    36    21    34    1
@<TRIPOS>MOLECULE
*****
 34 36 0 0 0
SMALL
GASTEIGER

@<TRIPOS>ATOM
      1 O           1.2696   -1.7341   -0.6859 O.2     1  UNL11      -0.2445
      2 C           1.0608   -1.2908    0.4769 C.2     1  UNL11       0.3445
      3 O          -0.0968   -0.6044    0.6899 O.3     1  UNL11      -0.4217
      4 C          -1.3726   -1.0755    0.5391 C.ar    1  UNL11       0.1396
      5 C          -1.7527   -2.3880    0.7120 C.ar    1  UNL11      -0.0186
      6 C          -3.0682   -2.8034    0.5435 C.ar    1  UNL11      -0.0577
      7 C          -4.0259   -1.8786    0.1927 C.ar    1  UNL11      -0.0538
      8 C          -3.6880   -0.5562    0.0101 C.ar    1  UNL11      -0.0144
      9 C          -4.6277    0.4028   -0.3437 C.ar    1  UNL11      -0.0539
     10 C          -4.2811    1.7263   -0.5249 C.ar    1  UNL11      -0.0612
     11 C          -2.9739    2.1165   -0.3532 C.ar    1  UNL11      -0.0611
     12 C          -2.0447    1.1615   -0.0022 C.ar    1  UNL11      -0.0505
     13 C          -2.3576   -0.1744    0.1877 C.ar    1  UNL11       0.0245
     14 C           2.0708   -1.5473    1.4958 C.ar    1  UNL11       0.0616
     15 C           2.8567   -2.6766    1.4321 C.ar    1  UNL11      -0.0476
     16 C           3.8259   -2.9483    2.3862 C.ar    1  UNL11      -0.0588
     17 C           4.0328   -2.0874    3.4364 C.ar    1  UNL11      -0.0316
     18 C           3.2558   -0.9504    3.5185 C.ar    1  UNL11       0.1224
     19 N           3.4489   -0.0416    4.5959 N.4     1  UNL11       0.0060
     20 O           4.2967   -0.2508    5.4594 O.2     1  UNL11      -0.1300
     21 O           2.6697    1.0860    4.6635 O.2     1  UNL11      -0.3961
     22 C           2.2862   -0.6910    2.5524 C.ar    1  UNL11      -0.0176
     23 H          -0.9957   -3.0978    0.9854 H       1  UNL11       0.0654
     24 H          -3.2715   -3.8523    0.7004 H       1  UNL11       0.0619
     25 H          -5.0491   -2.1832    0.0582 H       1  UNL11       0.0624
     26 H          -5.6455    0.0734   -0.4726 H       1  UNL11       0.0624
     27 H          -5.0848    2.3985   -0.8000 H       1  UNL11       0.0618
     28 H          -2.7432    3.1599   -0.5040 H       1  UNL11       0.0618
     29 H          -1.0236    1.4536    0.1344 H       1  UNL11       0.0625
     30 H           2.7164   -3.3651    0.6232 H       1  UNL11       0.0626
     31 H           4.4479   -3.8326    2.3443 H       1  UNL11       0.0618
     32 H           4.7722   -2.2492    4.2064 H       1  UNL11       0.0640
     33 H           1.6851    0.2128    2.6381 H       1  UNL11       0.0648
     34 H           2.0221    1.2481    4.0060 H       1  UNL11       0.3292
@<TRIPOS>BOND
     1     1     2    2
     2     2     3    1
     3     2    14    1
     4     3     4    1
     5     4     5   ar
     6     5     6   ar
     7     5    23    1
     8     6     7   ar
     9     6    24    1
    10     7     8   ar
    11     7    25    1
    12     8     9   ar
    13     9    10   ar
    14     9    26    1
    15    10    11   ar
    16    10    27    1
    17    11    12   ar
    18    11    28    1
    19    12    13   ar
    20    12    29    1
    21    13     4   ar
    22    13     8   ar
    23    14    15   ar
    24    15    16   ar
    25    15    30    1
    26    16    17   ar
    27    16    31    1
    28    17    18   ar
    29    17    32    1
    30    18    19    1
    31    18    22   ar
    32    19    20    2
    33    19    21    1
    34    22    14   ar
    35    22    33    1
    36    21    34    1
@<TRIPOS>MOLECULE
*****
 34 36 0 0 0
SMALL
GASTEIGER

@<TRIPOS>ATOM
      1 O          -0.1793    1.5513    1.3081 O.2     1  UNL11      -0.2445
      2 C           0.3241    0.6832    0.5431 C.2     1  UNL11       0.3445
      3 O          -0.0968   -0.6044    0.6899 O.3     1  UNL11      -0.4217
      4 C          -1.3726   -1.0755    0.5391 C.ar    1  UNL11       0.1396
      5 C          -1.7527   -2.3880    0.7120 C.ar    1  UNL11      -0.0186
      6 C          -3.0682   -2.8034    0.5435 C.ar    1  UNL11      -0.0577
      7 C          -4.0259   -1.8786    0.1927 C.ar    1  UNL11      -0.0538
      8 C          -3.6880   -0.5562    0.0101 C.ar    1  UNL11      -0.0144
      9 C          -4.6277    0.4028   -0.3437 C.ar    1  UNL11      -0.0539
     10 C          -4.2811    1.7263   -0.5249 C.ar    1  UNL11      -0.0612
     11 C          -2.9739    2.1165   -0.3532 C.ar    1  UNL11      -0.0611
     12 C          -2.0447    1.1615   -0.0022 C.ar    1  UNL11      -0.0505
     13 C          -2.3576   -0.1744    0.1877 C.ar    1  UNL11       0.0245
     14 C           1.3120    1.1252   -0.4330 C.ar    1  UNL11       0.0616
     15 C           2.1194    2.2092   -0.1683 C.ar    1  UNL11      -0.0476
     16 C           3.0684    2.6538   -1.0767 C.ar    1  UNL11      -0.0588
     17 C           3.2327    2.0173   -2.2828 C.ar    1  UNL11      -0.0316
     18 C           2.4335    0.9293   -2.5673 C.ar    1  UNL11       0.1224
     19 N           2.5824    0.2514   -3.8092 N.4     1  UNL11       0.0060
     20 O           2.3523   -0.9508   -3.9084 O.2     1  UNL11      -0.1300
     21 O           2.9907    0.9612   -4.9103 O.2     1  UNL11      -0.3961
     22 C           1.4846    0.4944   -1.6447 C.ar    1  UNL11      -0.0176
     23 H          -0.9957   -3.0978    0.9854 H       1  UNL11       0.0654
     24 H          -3.2715   -3.8523    0.7004 H       1  UNL11       0.0619
     25 H          -5.0491   -2.1832    0.0582 H       1  UNL11       0.0624
     26 H          -5.6455    0.0734   -0.4726 H       1  UNL11       0.0624
     27 H          -5.0848    2.3985   -0.8000 H       1  UNL11       0.0618
     28 H          -2.7432    3.1599   -0.5040 H       1  UNL11       0.0618
     29 H          -1.0236    1.4536    0.1344 H       1  UNL11       0.0625
     30 H           2.0123    2.7242    0.7652 H       1  UNL11       0.0626
     31 H           3.7071    3.5041   -0.8776 H       1  UNL11       0.0618
     32 H           3.9548    2.3202   -3.0262 H       1  UNL11       0.0640
     33 H           0.8654   -0.3665   -1.8913 H       1  UNL11       0.0648
     34 H           3.1670    1.8786   -4.8374 H       1  UNL11       0.3292
@<TRIPOS>BOND
     1     1     2    2
     2     2     3    1
     3     2    14    1
     4     3     4    1
     5     4     5   ar
     6     5     6   ar
     7     5    23    1
     8     6     7   ar
     9     6    24    1
    10     7     8   ar
    11     7    25    1
    12     8     9   ar
    13     9    10   ar
    14     9    26    1
    15    10    11   ar
    16    10    27    1
    17    11    12   ar
    18    11    28    1
    19    12    13   ar
    20    12    29    1
    21    13     4   ar
    22    13     8   ar
    23    14    15   ar
    24    15    16   ar
    25    15    30    1
    26    16    17   ar
    27    16    31    1
    28    17    18   ar
    29    17    32    1
    30    18    19    1
    31    18    22   ar
    32    19    20    2
    33    19    21    1
    34    22    14   ar
    35    22    33    1
    36    21    34    1
@<TRIPOS>MOLECULE
*****
 34 36 0 0 0
SMALL
GASTEIGER

@<TRIPOS>ATOM
      1 O          -0.1212    1.6215    0.4055 O.2     1  UNL11      -0.2445
      2 C           0.2739    0.6422    1.0963 C.2     1  UNL11       0.3445
      3 O          -0.0968   -0.6044    0.6899 O.3     1  UNL11      -0.4217
      4 C          -1.3726   -1.0755    0.5391 C.ar    1  UNL11       0.1396
      5 C          -1.7527   -2.3880    0.7120 C.ar    1  UNL11      -0.0186
      6 C          -3.0682   -2.8034    0.5435 C.ar    1  UNL11      -0.0577
      7 C          -4.0259   -1.8786    0.1927 C.ar    1  UNL11      -0.0538
      8 C          -3.6880   -0.5562    0.0101 C.ar    1  UNL11      -0.0144
      9 C          -4.6277    0.4028   -0.3437 C.ar    1  UNL11      -0.0539
     10 C          -4.2811    1.7263   -0.5249 C.ar    1  UNL11      -0.0612
     11 C          -2.9739    2.1165   -0.3532 C.ar    1  UNL11      -0.0611
     12 C          -2.0447    1.1615   -0.0022 C.ar    1  UNL11      -0.0505
     13 C          -2.3576   -0.1744    0.1877 C.ar    1  UNL11       0.0245
     14 C           1.0922    0.9214    2.2695 C.ar    1  UNL11       0.0616
     15 C           2.0393    0.0153    2.6927 C.ar    1  UNL11      -0.0476
     16 C           2.8331    0.2524    3.8050 C.ar    1  UNL11      -0.0588
     17 C           2.6959    1.4132    4.5263 C.ar    1  UNL11      -0.0316
     18 C           1.7526    2.3340    4.1189 C.ar    1  UNL11       0.1224
     19 N           1.5894    3.5447    4.8478 N.4     1  UNL11       0.0060
     20 O           1.2261    4.5774    4.2912 O.2     1  UNL11      -0.1300
     21 O           1.8444    3.5497    6.1961 O.2     1  UNL11      -0.3961
     22 C           0.9627    2.0817    2.9995 C.ar    1  UNL11      -0.0176
     23 H          -0.9957   -3.0978    0.9854 H       1  UNL11       0.0654
     24 H          -3.2715   -3.8523    0.7004 H       1  UNL11       0.0619
     25 H          -5.0491   -2.1832    0.0582 H       1  UNL11       0.0624
     26 H          -5.6455    0.0734   -0.4726 H       1  UNL11       0.0624
     27 H          -5.0848    2.3985   -0.8000 H       1  UNL11       0.0618
     28 H          -2.7432    3.1599   -0.5040 H       1  UNL11       0.0618
     29 H          -1.0236    1.4536    0.1344 H       1  UNL11       0.0625
     30 H           2.1672   -0.8985    2.1482 H       1  UNL11       0.0626
     31 H           3.5795   -0.4534    4.1448 H       1  UNL11       0.0618
     32 H           3.2863    1.6491    5.3990 H       1  UNL11       0.0640
     33 H           0.2250    2.8231    2.6970 H       1  UNL11       0.0648
     34 H           2.1217    2.7632    6.6234 H       1  UNL11       0.3292
@<TRIPOS>BOND
     1     1     2    2
     2     2     3    1
     3     2    14    1
     4     3     4    1
     5     4     5   ar
     6     5     6   ar
     7     5    23    1
     8     6     7   ar
     9     6    24    1
    10     7     8   ar
    11     7    25    1
    12     8     9   ar
    13     9    10   ar
    14     9    26    1
    15    10    11   ar
    16    10    27    1
    17    11    12   ar
    18    11    28    1
    19    12    13   ar
    20    12    29    1
    21    13     4   ar
    22    13     8   ar
    23    14    15   ar
    24    15    16   ar
    25    15    30    1
    26    16    17   ar
    27    16    31    1
    28    17    18   ar
    29    17    32    1
    30    18    19    1
    31    18    22   ar
    32    19    20    2
    33    19    21    1
    34    22    14   ar
    35    22    33    1
    36    21    34    1
@<TRIPOS>MOLECULE
*****
 34 36 0 0 0
SMALL
GASTEIGER

@<TRIPOS>ATOM
      1 O           0.1387    1.2324   -0.5777 O.2     1  UNL11      -0.2445
      2 C           0.3241    0.6832    0.5431 C.2     1  UNL11       0.3445
      3 O          -0.0968   -0.6044    0.6899 O.3     1  UNL11      -0.4217
      4 C          -1.3726   -1.0755    0.5391 C.ar    1  UNL11       0.1396
      5 C          -1.7527   -2.3880    0.7120 C.ar    1  UNL11      -0.0186
      6 C          -3.0682   -2.8034    0.5435 C.ar    1  UNL11      -0.0577
      7 C          -4.0259   -1.8786    0.1927 C.ar    1  UNL11      -0.0538
      8 C          -3.6880   -0.5562    0.0101 C.ar    1  UNL11      -0.0144
      9 C          -4.6277    0.4028   -0.3437 C.ar    1  UNL11      -0.0539
     10 C          -4.2811    1.7263   -0.5249 C.ar    1  UNL11      -0.0612
     11 C          -2.9739    2.1165   -0.3532 C.ar    1  UNL11      -0.0611
     12 C          -2.0447    1.1615   -0.0022 C.ar    1  UNL11      -0.0505
     13 C          -2.3576   -0.1744    0.1877 C.ar    1  UNL11       0.0245
     14 C           0.9714    1.4669    1.5876 C.ar    1  UNL11       0.0616
     15 C           1.7484    0.8508    2.5435 C.ar    1  UNL11      -0.0476
     16 C           2.3771    1.5691    3.5496 C.ar    1  UNL11      -0.0588
     17 C           2.2411    2.9339    3.6229 C.ar    1  UNL11      -0.0316
     18 C           1.4668    3.5703    2.6748 C.ar    1  UNL11       0.1224
     19 N           1.3089    4.9832    2.7270 N.4     1  UNL11       0.0060
     20 O           1.1389    5.6417    1.7044 O.2     1  UNL11      -0.1300
     21 O           1.3486    5.6129    3.9455 O.2     1  UNL11      -0.3961
     22 C           0.8416    2.8352    1.6700 C.ar    1  UNL11      -0.0176
     23 H          -0.9957   -3.0978    0.9854 H       1  UNL11       0.0654
     24 H          -3.2715   -3.8523    0.7004 H       1  UNL11       0.0619
     25 H          -5.0491   -2.1832    0.0582 H       1  UNL11       0.0624
     26 H          -5.6455    0.0734   -0.4726 H       1  UNL11       0.0624
     27 H          -5.0848    2.3985   -0.8000 H       1  UNL11       0.0618
     28 H          -2.7432    3.1599   -0.5040 H       1  UNL11       0.0618
     29 H          -1.0236    1.4536    0.1344 H       1  UNL11       0.0625
     30 H           1.8714   -0.2131    2.5098 H       1  UNL11       0.0626
     31 H           2.9893    1.0938    4.3046 H       1  UNL11       0.0618
     32 H           2.7073    3.5421    4.3836 H       1  UNL11       0.0640
     33 H           0.2355    3.3592    0.9328 H       1  UNL11       0.0648
     34 H           1.4782    5.1129    4.7273 H       1  UNL11       0.3292
@<TRIPOS>BOND
     1     1     2    2
     2     2     3    1
     3     2    14    1
     4     3     4    1
     5     4     5   ar
     6     5     6   ar
     7     5    23    1
     8     6     7   ar
     9     6    24    1
    10     7     8   ar
    11     7    25    1
    12     8     9   ar
    13     9    10   ar
    14     9    26    1
    15    10    11   ar
    16    10    27    1
    17    11    12   ar
    18    11    28    1
    19    12    13   ar
    20    12    29    1
    21    13     4   ar
    22    13     8   ar
    23    14    15   ar
    24    15    16   ar
    25    15    30    1
    26    16    17   ar
    27    16    31    1
    28    17    18   ar
    29    17    32    1
    30    18    19    1
    31    18    22   ar
    32    19    20    2
    33    19    21    1
    34    22    14   ar
    35    22    33    1
    36    21    34    1
@<TRIPOS>MOLECULE
*****
 34 36 0 0 0
SMALL
GASTEIGER

@<TRIPOS>ATOM
      1 O          -0.1793    1.5513    1.3081 O.2     1  UNL11      -0.2445
      2 C           0.3241    0.6832    0.5431 C.2     1  UNL11       0.3445
      3 O          -0.0968   -0.6044    0.6899 O.3     1  UNL11      -0.4217
      4 C          -1.3726   -1.0755    0.5391 C.ar    1  UNL11       0.1396
      5 C          -1.7527   -2.3880    0.7120 C.ar    1  UNL11      -0.0186
      6 C          -3.0682   -2.8034    0.5435 C.ar    1  UNL11      -0.0577
      7 C          -4.0259   -1.8786    0.1927 C.ar    1  UNL11      -0.0538
      8 C          -3.6880   -0.5562    0.0101 C.ar    1  UNL11      -0.0144
      9 C          -4.6277    0.4028   -0.3437 C.ar    1  UNL11      -0.0539
     10 C          -4.2811    1.7263   -0.5249 C.ar    1  UNL11      -0.0612
     11 C          -2.9739    2.1165   -0.3532 C.ar    1  UNL11      -0.0611
     12 C          -2.0447    1.1615   -0.0022 C.ar    1  UNL11      -0.0505
     13 C          -2.3576   -0.1744    0.1877 C.ar    1  UNL11       0.0245
     14 C           1.3120    1.1252   -0.4330 C.ar    1  UNL11       0.0616
     15 C           1.2629    2.4017   -0.9481 C.ar    1  UNL11      -0.0476
     16 C           2.1883    2.8515   -1.8780 C.ar    1  UNL11      -0.0588
     17 C           3.1941    2.0260   -2.3180 C.ar    1  UNL11      -0.0316
     18 C           3.2607    0.7433   -1.8143 C.ar    1  UNL11       0.1224
     19 N           4.2921   -0.1330   -2.2529 N.4     1  UNL11       0.0060
     20 O           4.3703   -1.2837   -1.8311 O.2     1  UNL11      -0.1300
     21 O           5.2115    0.3240   -3.1633 O.2     1  UNL11      -0.3961
     22 C           2.3239    0.3058   -0.8807 C.ar    1  UNL11      -0.0176
     23 H          -0.9957   -3.0978    0.9854 H       1  UNL11       0.0654
     24 H          -3.2715   -3.8523    0.7004 H       1  UNL11       0.0619
     25 H          -5.0491   -2.1832    0.0582 H       1  UNL11       0.0624
     26 H          -5.6455    0.0734   -0.4726 H       1  UNL11       0.0624
     27 H          -5.0848    2.3985   -0.8000 H       1  UNL11       0.0618
     28 H          -2.7432    3.1599   -0.5040 H       1  UNL11       0.0618
     29 H          -1.0236    1.4536    0.1344 H       1  UNL11       0.0625
     30 H           0.4886    3.0666   -0.6219 H       1  UNL11       0.0626
     31 H           2.1577    3.8523   -2.2880 H       1  UNL11       0.0618
     32 H           3.9402    2.3234   -3.0395 H       1  UNL11       0.0640
     33 H           2.3967   -0.7107   -0.4973 H       1  UNL11       0.0648
     34 H           5.1542    1.2015   -3.4869 H       1  UNL11       0.3292
@<TRIPOS>BOND
     1     1     2    2
     2     2     3    1
     3     2    14    1
     4     3     4    1
     5     4     5   ar
     6     5     6   ar
     7     5    23    1
     8     6     7   ar
     9     6    24    1
    10     7     8   ar
    11     7    25    1
    12     8     9   ar
    13     9    10   ar
    14     9    26    1
    15    10    11   ar
    16    10    27    1
    17    11    12   ar
    18    11    28    1
    19    12    13   ar
    20    12    29    1
    21    13     4   ar
    22    13     8   ar
    23    14    15   ar
    24    15    16   ar
    25    15    30    1
    26    16    17   ar
    27    16    31    1
    28    17    18   ar
    29    17    32    1
    30    18    19    1
    31    18    22   ar
    32    19    20    2
    33    19    21    1
    34    22    14   ar
    35    22    33    1
    36    21    34    1
@<TRIPOS>MOLECULE
*****
 34 36 0 0 0
SMALL
GASTEIGER

@<TRIPOS>ATOM
      1 O          -0.1793    1.5513    1.3081 O.2     1  UNL11      -0.2445
      2 C           0.3241    0.6832    0.5431 C.2     1  UNL11       0.3445
      3 O          -0.0968   -0.6044    0.6899 O.3     1  UNL11      -0.4217
      4 C          -1.3726   -1.0755    0.5391 C.ar    1  UNL11       0.1396
      5 C          -1.7527   -2.3880    0.7120 C.ar    1  UNL11      -0.0186
      6 C          -3.0682   -2.8034    0.5435 C.ar    1  UNL11      -0.0577
      7 C          -4.0259   -1.8786    0.1927 C.ar    1  UNL11      -0.0538
      8 C          -3.6880   -0.5562    0.0101 C.ar    1  UNL11      -0.0144
      9 C          -4.6277    0.4028   -0.3437 C.ar    1  UNL11      -0.0539
     10 C          -4.2811    1.7263   -0.5249 C.ar    1  UNL11      -0.0612
     11 C          -2.9739    2.1165   -0.3532 C.ar    1  UNL11      -0.0611
     12 C          -2.0447    1.1615   -0.0022 C.ar    1  UNL11      -0.0505
     13 C          -2.3576   -0.1744    0.1877 C.ar    1  UNL11       0.0245
     14 C           1.3120    1.1252   -0.4330 C.ar    1  UNL11       0.0616
     15 C           1.8838    0.2256   -1.3052 C.ar    1  UNL11      -0.0476
     16 C           2.8263    0.6155   -2.2449 C.ar    1  UNL11      -0.0588
     17 C           3.2221    1.9278   -2.3341 C.ar    1  UNL11      -0.0316
     18 C           2.6613    2.8449   -1.4693 C.ar    1  UNL11       0.1224
     19 N           3.0531    4.2107   -1.5397 N.4     1  UNL11       0.0060
     20 O           2.2730    5.1116   -1.2431 O.2     1  UNL11      -0.1300
     21 O           4.3269    4.5176   -1.9473 O.2     1  UNL11      -0.3961
     22 C           1.7156    2.4380   -0.5307 C.ar    1  UNL11      -0.0176
     23 H          -0.9957   -3.0978    0.9854 H       1  UNL11       0.0654
     24 H          -3.2715   -3.8523    0.7004 H       1  UNL11       0.0619
     25 H          -5.0491   -2.1832    0.0582 H       1  UNL11       0.0624
     26 H          -5.6455    0.0734   -0.4726 H       1  UNL11       0.0624
     27 H          -5.0848    2.3985   -0.8000 H       1  UNL11       0.0618
     28 H          -2.7432    3.1599   -0.5040 H       1  UNL11       0.0618
     29 H          -1.0236    1.4536    0.1344 H       1  UNL11       0.0625
     30 H           1.5930   -0.8046   -1.2573 H       1  UNL11       0.0626
     31 H           3.2807   -0.0840   -2.9340 H       1  UNL11       0.0618
     32 H           3.9509    2.2863   -3.0455 H       1  UNL11       0.0640
     33 H           1.2868    3.1797    0.1413 H       1  UNL11       0.0648
     34 H           4.9242    3.8322   -2.1742 H       1  UNL11       0.3292
@<TRIPOS>BOND
     1     1     2    2
     2     2     3    1
     3     2    14    1
     4     3     4    1
     5     4     5   ar
     6     5     6   ar
     7     5    23    1
     8     6     7   ar
     9     6    24    1
    10     7     8   ar
    11     7    25    1
    12     8     9   ar
    13     9    10   ar
    14     9    26    1
    15    10    11   ar
    16    10    27    1
    17    11    12   ar
    18    11    28    1
    19    12    13   ar
    20    12    29    1
    21    13     4   ar
    22    13     8   ar
    23    14    15   ar
    24    15    16   ar
    25    15    30    1
    26    16    17   ar
    27    16    31    1
    28    17    18   ar
    29    17    32    1
    30    18    19    1
    31    18    22   ar
    32    19    20    2
    33    19    21    1
    34    22    14   ar
    35    22    33    1
    36    21    34    1
@<TRIPOS>MOLECULE
*****
 34 36 0 0 0
SMALL
GASTEIGER

@<TRIPOS>ATOM
      1 O           1.2696   -1.7341   -0.6859 O.2     1  UNL11      -0.2445
      2 C           1.0608   -1.2908    0.4769 C.2     1  UNL11       0.3445
      3 O          -0.0968   -0.6044    0.6899 O.3     1  UNL11      -0.4217
      4 C          -1.3726   -1.0755    0.5391 C.ar    1  UNL11       0.1396
      5 C          -1.7527   -2.3880    0.7120 C.ar    1  UNL11      -0.0186
      6 C          -3.0682   -2.8034    0.5435 C.ar    1  UNL11      -0.0577
      7 C          -4.0259   -1.8786    0.1927 C.ar    1  UNL11      -0.0538
      8 C          -3.6880   -0.5562    0.0101 C.ar    1  UNL11      -0.0144
      9 C          -4.6277    0.4028   -0.3437 C.ar    1  UNL11      -0.0539
     10 C          -4.2811    1.7263   -0.5249 C.ar    1  UNL11      -0.0612
     11 C          -2.9739    2.1165   -0.3532 C.ar    1  UNL11      -0.0611
     12 C          -2.0447    1.1615   -0.0022 C.ar    1  UNL11      -0.0505
     13 C          -2.3576   -0.1744    0.1877 C.ar    1  UNL11       0.0245
     14 C           2.0708   -1.5473    1.4958 C.ar    1  UNL11       0.0616
     15 C           2.8567   -2.6766    1.4321 C.ar    1  UNL11      -0.0476
     16 C           3.8259   -2.9483    2.3862 C.ar    1  UNL11      -0.0588
     17 C           4.0328   -2.0874    3.4364 C.ar    1  UNL11      -0.0316
     18 C           3.2558   -0.9504    3.5185 C.ar    1  UNL11       0.1224
     19 N           3.4489   -0.0416    4.5959 N.4     1  UNL11       0.0060
     20 O           2.7648    0.9729    4.7017 O.2     1  UNL11      -0.1300
     21 O           4.4186   -0.3111    5.5285 O.2     1  UNL11      -0.3961
     22 C           2.2862   -0.6910    2.5524 C.ar    1  UNL11      -0.0176
     23 H          -0.9957   -3.0978    0.9854 H       1  UNL11       0.0654
     24 H          -3.2715   -3.8523    0.7004 H       1  UNL11       0.0619
     25 H          -5.0491   -2.1832    0.0582 H       1  UNL11       0.0624
     26 H          -5.6455    0.0734   -0.4726 H       1  UNL11       0.0624
     27 H          -5.0848    2.3985   -0.8000 H       1  UNL11       0.0618
     28 H          -2.7432    3.1599   -0.5040 H       1  UNL11       0.0618
     29 H          -1.0236    1.4536    0.1344 H       1  UNL11       0.0625
     30 H           2.7164   -3.3651    0.6232 H       1  UNL11       0.0626
     31 H           4.4479   -3.8326    2.3443 H       1  UNL11       0.0618
     32 H           4.7722   -2.2492    4.2064 H       1  UNL11       0.0640
     33 H           1.6851    0.2128    2.6381 H       1  UNL11       0.0648
     34 H           4.9419   -1.0844    5.4502 H       1  UNL11       0.3292
@<TRIPOS>BOND
     1     1     2    2
     2     2     3    1
     3     2    14    1
     4     3     4    1
     5     4     5   ar
     6     5     6   ar
     7     5    23    1
     8     6     7   ar
     9     6    24    1
    10     7     8   ar
    11     7    25    1
    12     8     9   ar
    13     9    10   ar
    14     9    26    1
    15    10    11   ar
    16    10    27    1
    17    11    12   ar
    18    11    28    1
    19    12    13   ar
    20    12    29    1
    21    13     4   ar
    22    13     8   ar
    23    14    15   ar
    24    15    16   ar
    25    15    30    1
    26    16    17   ar
    27    16    31    1
    28    17    18   ar
    29    17    32    1
    30    18    19    1
    31    18    22   ar
    32    19    20    2
    33    19    21    1
    34    22    14   ar
    35    22    33    1
    36    21    34    1
@<TRIPOS>MOLECULE
*****
 34 36 0 0 0
SMALL
GASTEIGER

@<TRIPOS>ATOM
      1 O          -0.0912    1.0126    2.2460 O.2     1  UNL11      -0.2445
      2 C           0.2739    0.6422    1.0963 C.2     1  UNL11       0.3445
      3 O          -0.0968   -0.6044    0.6899 O.3     1  UNL11      -0.4217
      4 C          -1.3726   -1.0755    0.5391 C.ar    1  UNL11       0.1396
      5 C          -1.7527   -2.3880    0.7120 C.ar    1  UNL11      -0.0186
      6 C          -3.0682   -2.8034    0.5435 C.ar    1  UNL11      -0.0577
      7 C          -4.0259   -1.8786    0.1927 C.ar    1  UNL11      -0.0538
      8 C          -3.6880   -0.5562    0.0101 C.ar    1  UNL11      -0.0144
      9 C          -4.6277    0.4028   -0.3437 C.ar    1  UNL11      -0.0539
     10 C          -4.2811    1.7263   -0.5249 C.ar    1  UNL11      -0.0612
     11 C          -2.9739    2.1165   -0.3532 C.ar    1  UNL11      -0.0611
     12 C          -2.0447    1.1615   -0.0022 C.ar    1  UNL11      -0.0505
     13 C          -2.3576   -0.1744    0.1877 C.ar    1  UNL11       0.0245
     14 C           1.0600    1.5739    0.2976 C.ar    1  UNL11       0.0616
     15 C           1.9831    1.1082   -0.6124 C.ar    1  UNL11      -0.0476
     16 C           2.7460    1.9694   -1.3868 C.ar    1  UNL11      -0.0588
     17 C           2.6010    3.3301   -1.2670 C.ar    1  UNL11      -0.0316
     18 C           1.6816    3.8171   -0.3609 C.ar    1  UNL11       0.1224
     19 N           1.5111    5.2221   -0.2164 N.4     1  UNL11       0.0060
     20 O           0.7088    5.6851    0.5899 O.2     1  UNL11      -0.1300
     21 O           2.2605    6.0672   -0.9955 O.2     1  UNL11      -0.3961
     22 C           0.9225    2.9394    0.4099 C.ar    1  UNL11      -0.0176
     23 H          -0.9957   -3.0978    0.9854 H       1  UNL11       0.0654
     24 H          -3.2715   -3.8523    0.7004 H       1  UNL11       0.0619
     25 H          -5.0491   -2.1832    0.0582 H       1  UNL11       0.0624
     26 H          -5.6455    0.0734   -0.4726 H       1  UNL11       0.0624
     27 H          -5.0848    2.3985   -0.8000 H       1  UNL11       0.0618
     28 H          -2.7432    3.1599   -0.5040 H       1  UNL11       0.0618
     29 H          -1.0236    1.4536    0.1344 H       1  UNL11       0.0625
     30 H           2.1163    0.0511   -0.7261 H       1  UNL11       0.0626
     31 H           3.4733    1.6128   -2.1040 H       1  UNL11       0.0618
     32 H           3.1679    4.0456   -1.8436 H       1  UNL11       0.0640
     33 H           0.2031    3.3469    1.1183 H       1  UNL11       0.0648
     34 H           2.8734    5.7166   -1.6115 H       1  UNL11       0.3292
@<TRIPOS>BOND
     1     1     2    2
     2     2     3    1
     3     2    14    1
     4     3     4    1
     5     4     5   ar
     6     5     6   ar
     7     5    23    1
     8     6     7   ar
     9     6    24    1
    10     7     8   ar
    11     7    25    1
    12     8     9   ar
    13     9    10   ar
    14     9    26    1
    15    10    11   ar
    16    10    27    1
    17    11    12   ar
    18    11    28    1
    19    12    13   ar
    20    12    29    1
    21    13     4   ar
    22    13     8   ar
    23    14    15   ar
    24    15    16   ar
    25    15    30    1
    26    16    17   ar
    27    16    31    1
    28    17    18   ar
    29    17    32    1
    30    18    19    1
    31    18    22   ar
    32    19    20    2
    33    19    21    1
    34    22    14   ar
    35    22    33    1
    36    21    34    1
