@<TRIPOS>MOLECULE
*****
 41 43 0 0 0
SMALL
GASTEIGER

@<TRIPOS>ATOM
      1 C           0.3730   -0.9309   -2.6516 C.3     1  UNL11      -0.0189
      2 C           0.4633   -0.9614   -1.1545 C.3     1  UNL11       0.1761
      3 O          -0.7117   -0.6003   -0.5046 O.3     1  UNL11      -0.4487
      4 C          -1.3540    0.5960   -0.6328 C.2     1  UNL11       0.3410
      5 O          -1.7288    0.8078   -1.8632 O.2     1  UNL11      -0.2449
      6 C          -1.6605    1.6034    0.3430 C.2     1  UNL11       0.0820
      7 C          -1.6861    1.2951    1.7033 C.2     1  UNL11       0.0674
      8 C          -1.9690    2.2093    2.6560 C.2     1  UNL11       0.4077
      9 O          -1.9872    1.9106    3.8826 O.2     1  UNL11      -0.2148
     10 N          -2.2404    3.4739    2.3063 N.am    1  UNL11      -0.1444
     11 C          -2.2331    3.8445    0.9958 C.ar    1  UNL11       0.2104
     12 C          -2.5105    5.1361    0.6424 C.ar    1  UNL11       0.0097
     13 C          -2.5040    5.5158   -0.6857 C.ar    1  UNL11      -0.0555
     14 C          -2.2217    4.6161   -1.6774 C.ar    1  UNL11      -0.0608
     15 C          -1.9407    3.3067   -1.3144 C.ar    1  UNL11      -0.0475
     16 C          -1.9398    2.8974    0.0077 C.ar    1  UNL11       0.0599
     17 C           1.5988   -0.0666   -0.6954 C.2     1  UNL11       0.2579
     18 O           2.2236   -0.3373    0.3539 O.2     1  UNL11      -0.2714
     19 N           1.9374    1.0575   -1.4541 N.am    1  UNL11      -0.2801
     20 C           2.9631    1.9891   -1.1709 C.ar    1  UNL11       0.0691
     21 C           4.0386    2.2827   -1.9611 C.ar    1  UNL11      -0.0377
     22 C           5.0150    3.2216   -1.6086 C.ar    1  UNL11      -0.0598
     23 C           4.9274    3.9060   -0.4173 C.ar    1  UNL11      -0.0589
     24 C           3.8523    3.6268    0.3955 C.ar    1  UNL11      -0.0246
     25 C           2.9019    2.6978    0.0284 C.ar    1  UNL11       0.1445
     26 F           1.8419    2.4454    0.8660 F       1  UNL11      -0.2035
     27 H           0.2742   -1.9439   -3.0646 H       1  UNL11       0.0270
     28 H          -0.4208   -0.2378   -3.0166 H       1  UNL11       0.0270
     29 H           1.3279   -0.5197   -3.0397 H       1  UNL11       0.0270
     30 H           0.7131   -2.0008   -0.8550 H       1  UNL11       0.0830
     31 H          -1.4650    0.2716    1.9663 H       1  UNL11       0.0728
     32 H          -2.4652    4.2108    3.0294 H       1  UNL11       0.4475
     33 H          -2.7338    5.8455    1.4340 H       1  UNL11       0.0683
     34 H          -2.7286    6.5412   -0.9060 H       1  UNL11       0.0620
     35 H          -2.2212    4.9287   -2.7018 H       1  UNL11       0.0618
     36 H          -1.7289    2.6526   -2.1266 H       1  UNL11       0.0626
     37 H           1.3401    1.2032   -2.3373 H       1  UNL11       0.1550
     38 H           4.1756    1.7903   -2.9048 H       1  UNL11       0.0637
     39 H           5.8487    3.4140   -2.2772 H       1  UNL11       0.0618
     40 H           5.6842    4.6434   -0.1285 H       1  UNL11       0.0618
     41 H           3.7763    4.1589    1.3313 H       1  UNL11       0.0647
@<TRIPOS>BOND
     1     1     2    1
     2     1    27    1
     3     1    28    1
     4     1    29    1
     5     2     3    1
     6     2    17    1
     7     2    30    1
     8     3     4    1
     9     4     5    2
    10     4     6    1
    11     6     7    2
    12     7     8    1
    13     7    31    1
    14     8     9    2
    15     8    10   am
    16    10    11    1
    17    10    32    1
    18    11    12   ar
    19    12    13   ar
    20    12    33    1
    21    13    14   ar
    22    13    34    1
    23    14    15   ar
    24    14    35    1
    25    15    16   ar
    26    15    36    1
    27    16     6    1
    28    16    11   ar
    29    17    18    2
    30    17    19   am
    31    19    20    1
    32    19    37    1
    33    20    21   ar
    34    21    22   ar
    35    21    38    1
    36    22    23   ar
    37    22    39    1
    38    23    24   ar
    39    23    40    1
    40    24    25   ar
    41    24    41    1
    42    25    26    1
    43    25    20   ar
@<TRIPOS>MOLECULE
*****
 41 43 0 0 0
SMALL
GASTEIGER

@<TRIPOS>ATOM
      1 C           0.3730   -0.9309   -2.6516 C.3     1  UNL11      -0.0189
      2 C           0.4633   -0.9614   -1.1545 C.3     1  UNL11       0.1761
      3 O          -0.7117   -0.6003   -0.5046 O.3     1  UNL11      -0.4487
      4 C          -1.4178   -1.3894    0.3550 C.2     1  UNL11       0.3410
      5 O          -1.8063   -2.4933   -0.2192 O.2     1  UNL11      -0.2449
      6 C          -1.7760   -1.1886    1.7306 C.2     1  UNL11       0.0820
      7 C          -1.0738   -0.2827    2.5261 C.2     1  UNL11       0.0674
      8 C          -1.3749   -0.0613    3.8237 C.2     1  UNL11       0.4077
      9 O          -0.7273    0.7631    4.5273 O.2     1  UNL11      -0.2148
     10 N          -2.3869   -0.7273    4.3959 N.am    1  UNL11      -0.1444
     11 C          -3.1149   -1.6269    3.6779 C.ar    1  UNL11       0.2104
     12 C          -4.1472   -2.3049    4.2651 C.ar    1  UNL11       0.0097
     13 C          -4.8878   -3.2180    3.5401 C.ar    1  UNL11      -0.0555
     14 C          -4.6109   -3.4675    2.2233 C.ar    1  UNL11      -0.0608
     15 C          -3.5627   -2.7774    1.6315 C.ar    1  UNL11      -0.0475
     16 C          -2.8034   -1.8569    2.3327 C.ar    1  UNL11       0.0599
     17 C           1.5988   -0.0666   -0.6954 C.2     1  UNL11       0.2579
     18 O           2.5960    0.1058   -1.4307 O.2     1  UNL11      -0.2714
     19 N           1.5187    0.5598    0.5516 N.am    1  UNL11      -0.2801
     20 C           2.4818    1.4209    1.1269 C.ar    1  UNL11       0.0691
     21 C           3.1463    1.2292    2.3055 C.ar    1  UNL11      -0.0377
     22 C           4.0895    2.1324    2.8092 C.ar    1  UNL11      -0.0598
     23 C           4.3936    3.2827    2.1167 C.ar    1  UNL11      -0.0589
     24 C           3.7366    3.4974    0.9265 C.ar    1  UNL11      -0.0246
     25 C           2.8109    2.5940    0.4489 C.ar    1  UNL11       0.1445
     26 F           2.1747    2.8422   -0.7439 F       1  UNL11      -0.2035
     27 H           0.2742   -1.9439   -3.0646 H       1  UNL11       0.0270
     28 H          -0.4208   -0.2378   -3.0166 H       1  UNL11       0.0270
     29 H           1.3279   -0.5197   -3.0397 H       1  UNL11       0.0270
     30 H           0.7131   -2.0008   -0.8550 H       1  UNL11       0.0830
     31 H          -0.2620    0.2446    2.0482 H       1  UNL11       0.0728
     32 H          -2.6456   -0.5749    5.4089 H       1  UNL11       0.4475
     33 H          -4.3620   -2.1025    5.3103 H       1  UNL11       0.0683
     34 H          -5.6858   -3.7212    4.0505 H       1  UNL11       0.0620
     35 H          -5.1960   -4.1791    1.6771 H       1  UNL11       0.0618
     36 H          -3.3939   -3.0120    0.6074 H       1  UNL11       0.0626
     37 H           0.6222    0.3469    1.1074 H       1  UNL11       0.1550
     38 H           2.9630    0.3560    2.9019 H       1  UNL11       0.0637
     39 H           4.5867    1.9274    3.7525 H       1  UNL11       0.0618
     40 H           5.1295    3.9985    2.4988 H       1  UNL11       0.0618
     41 H           3.9692    4.3969    0.3774 H       1  UNL11       0.0647
@<TRIPOS>BOND
     1     1     2    1
     2     1    27    1
     3     1    28    1
     4     1    29    1
     5     2     3    1
     6     2    17    1
     7     2    30    1
     8     3     4    1
     9     4     5    2
    10     4     6    1
    11     6     7    2
    12     7     8    1
    13     7    31    1
    14     8     9    2
    15     8    10   am
    16    10    11    1
    17    10    32    1
    18    11    12   ar
    19    12    13   ar
    20    12    33    1
    21    13    14   ar
    22    13    34    1
    23    14    15   ar
    24    14    35    1
    25    15    16   ar
    26    15    36    1
    27    16     6    1
    28    16    11   ar
    29    17    18    2
    30    17    19   am
    31    19    20    1
    32    19    37    1
    33    20    21   ar
    34    21    22   ar
    35    21    38    1
    36    22    23   ar
    37    22    39    1
    38    23    24   ar
    39    23    40    1
    40    24    25   ar
    41    24    41    1
    42    25    26    1
    43    25    20   ar
@<TRIPOS>MOLECULE
*****
 41 43 0 0 0
SMALL
GASTEIGER

@<TRIPOS>ATOM
      1 C           0.3730   -0.9309   -2.6516 C.3     1  UNL11      -0.0189
      2 C           0.4633   -0.9614   -1.1545 C.3     1  UNL11       0.1761
      3 O          -0.7117   -0.6003   -0.5046 O.3     1  UNL11      -0.4487
      4 C          -1.4178   -1.3894    0.3550 C.2     1  UNL11       0.3410
      5 O          -0.7045   -1.7217    1.3941 O.2     1  UNL11      -0.2449
      6 C          -2.7647   -1.8811    0.2827 C.2     1  UNL11       0.0820
      7 C          -3.5778   -1.5772   -0.8095 C.2     1  UNL11       0.0674
      8 C          -4.8496   -2.0172   -0.9201 C.2     1  UNL11       0.4077
      9 O          -5.5699   -1.7313   -1.9169 O.2     1  UNL11      -0.2148
     10 N          -5.3773   -2.7800    0.0468 N.am    1  UNL11      -0.1444
     11 C          -4.6398   -3.1152    1.1415 C.ar    1  UNL11       0.2104
     12 C          -5.1815   -3.8939    2.1265 C.ar    1  UNL11       0.0097
     13 C          -4.4366   -4.2360    3.2383 C.ar    1  UNL11      -0.0555
     14 C          -3.1449   -3.8080    3.3836 C.ar    1  UNL11      -0.0608
     15 C          -2.5992   -3.0181    2.3819 C.ar    1  UNL11      -0.0475
     16 C          -3.3213   -2.6595    1.2569 C.ar    1  UNL11       0.0599
     17 C           1.5988   -0.0666   -0.6954 C.2     1  UNL11       0.2579
     18 O           1.9194    0.9348   -1.3730 O.2     1  UNL11      -0.2714
     19 N           2.2790   -0.3719    0.4870 N.am    1  UNL11      -0.2801
     20 C           2.0360   -1.4734    1.3401 C.ar    1  UNL11       0.0691
     21 C           1.3805   -2.6275    1.0148 C.ar    1  UNL11      -0.0377
     22 C           1.1798   -3.6760    1.9199 C.ar    1  UNL11      -0.0598
     23 C           1.6486   -3.5830    3.2110 C.ar    1  UNL11      -0.0589
     24 C           2.3123   -2.4294    3.5618 C.ar    1  UNL11      -0.0246
     25 C           2.4988   -1.4087    2.6538 C.ar    1  UNL11       0.1445
     26 F           3.1666   -0.2713    3.0404 F       1  UNL11      -0.2035
     27 H           0.2742   -1.9439   -3.0646 H       1  UNL11       0.0270
     28 H          -0.4208   -0.2378   -3.0166 H       1  UNL11       0.0270
     29 H           1.3279   -0.5197   -3.0397 H       1  UNL11       0.0270
     30 H           0.7131   -2.0008   -0.8550 H       1  UNL11       0.0830
     31 H          -3.1358   -0.9617   -1.5785 H       1  UNL11       0.0728
     32 H          -6.3694   -3.1388   -0.0124 H       1  UNL11       0.4475
     33 H          -6.2071   -4.2305    2.0054 H       1  UNL11       0.0683
     34 H          -4.9112   -4.8487    3.9798 H       1  UNL11       0.0620
     35 H          -2.5826   -4.0833    4.2526 H       1  UNL11       0.0618
     36 H          -1.5928   -2.7154    2.5487 H       1  UNL11       0.0626
     37 H           3.0616    0.3186    0.7492 H       1  UNL11       0.1550
     38 H           0.9862   -2.7737    0.0274 H       1  UNL11       0.0637
     39 H           0.6509   -4.5705    1.6049 H       1  UNL11       0.0618
     40 H           1.4988   -4.3957    3.9300 H       1  UNL11       0.0618
     41 H           2.6830   -2.3485    4.5722 H       1  UNL11       0.0647
@<TRIPOS>BOND
     1     1     2    1
     2     1    27    1
     3     1    28    1
     4     1    29    1
     5     2     3    1
     6     2    17    1
     7     2    30    1
     8     3     4    1
     9     4     5    2
    10     4     6    1
    11     6     7    2
    12     7     8    1
    13     7    31    1
    14     8     9    2
    15     8    10   am
    16    10    11    1
    17    10    32    1
    18    11    12   ar
    19    12    13   ar
    20    12    33    1
    21    13    14   ar
    22    13    34    1
    23    14    15   ar
    24    14    35    1
    25    15    16   ar
    26    15    36    1
    27    16     6    1
    28    16    11   ar
    29    17    18    2
    30    17    19   am
    31    19    20    1
    32    19    37    1
    33    20    21   ar
    34    21    22   ar
    35    21    38    1
    36    22    23   ar
    37    22    39    1
    38    23    24   ar
    39    23    40    1
    40    24    25   ar
    41    24    41    1
    42    25    26    1
    43    25    20   ar
@<TRIPOS>MOLECULE
*****
 41 43 0 0 0
SMALL
GASTEIGER

@<TRIPOS>ATOM
      1 C           0.3730   -0.9309   -2.6516 C.3     1  UNL11      -0.0189
      2 C           0.4633   -0.9614   -1.1545 C.3     1  UNL11       0.1761
      3 O          -0.7117   -0.6003   -0.5046 O.3     1  UNL11      -0.4487
      4 C          -1.9095   -1.2432   -0.6152 C.2     1  UNL11       0.3410
      5 O          -2.3295   -1.2624   -1.8490 O.2     1  UNL11      -0.2449
      6 C          -2.7315   -1.8694    0.3814 C.2     1  UNL11       0.0820
      7 C          -2.5939   -1.5398    1.7301 C.2     1  UNL11       0.0674
      8 C          -3.3445   -2.1025    2.7014 C.2     1  UNL11       0.4077
      9 O          -3.2049   -1.7908    3.9169 O.2     1  UNL11      -0.2148
     10 N          -4.2681   -3.0193    2.3829 N.am    1  UNL11      -0.1444
     11 C          -4.4557   -3.3885    1.0855 C.ar    1  UNL11       0.2104
     12 C          -5.3993   -4.3247    0.7640 C.ar    1  UNL11       0.0097
     13 C          -5.5925   -4.7016   -0.5508 C.ar    1  UNL11      -0.0555
     14 C          -4.8501   -4.1524   -1.5607 C.ar    1  UNL11      -0.0608
     15 C          -3.8938   -3.2030   -1.2300 C.ar    1  UNL11      -0.0475
     16 C          -3.6780   -2.8057    0.0781 C.ar    1  UNL11       0.0599
     17 C           1.5988   -0.0666   -0.6954 C.2     1  UNL11       0.2579
     18 O           1.5780    1.1559   -0.9595 O.2     1  UNL11      -0.2714
     19 N           2.6628   -0.6205    0.0223 N.am    1  UNL11      -0.2801
     20 C           2.8246   -1.9800    0.3768 C.ar    1  UNL11       0.0691
     21 C           3.8573   -2.7991    0.0164 C.ar    1  UNL11      -0.0377
     22 C           3.9456   -4.1395    0.4098 C.ar    1  UNL11      -0.0598
     23 C           2.9668   -4.7013    1.1982 C.ar    1  UNL11      -0.0589
     24 C           1.9164   -3.8953    1.5738 C.ar    1  UNL11      -0.0246
     25 C           1.8496   -2.5772    1.1748 C.ar    1  UNL11       0.1445
     26 F           0.7850   -1.8027    1.5698 F       1  UNL11      -0.2035
     27 H           0.2742   -1.9439   -3.0646 H       1  UNL11       0.0270
     28 H          -0.4208   -0.2378   -3.0166 H       1  UNL11       0.0270
     29 H           1.3279   -0.5197   -3.0397 H       1  UNL11       0.0270
     30 H           0.7131   -2.0008   -0.8550 H       1  UNL11       0.0830
     31 H          -1.8450   -0.7994    1.9678 H       1  UNL11       0.0728
     32 H          -4.8700   -3.4766    3.1212 H       1  UNL11       0.4475
     33 H          -5.9852   -4.7569    1.5699 H       1  UNL11       0.0683
     34 H          -6.3457   -5.4399   -0.7460 H       1  UNL11       0.0620
     35 H          -5.0139   -4.4570   -2.5743 H       1  UNL11       0.0618
     36 H          -3.3479   -2.8113   -2.0551 H       1  UNL11       0.0626
     37 H           3.4202    0.0827    0.3220 H       1  UNL11       0.1550
     38 H           4.6581   -2.4332   -0.5974 H       1  UNL11       0.0637
     39 H           4.7906   -4.7431    0.0925 H       1  UNL11       0.0618
     40 H           3.0229   -5.7489    1.5135 H       1  UNL11       0.0618
     41 H           1.1448   -4.3282    2.1920 H       1  UNL11       0.0647
@<TRIPOS>BOND
     1     1     2    1
     2     1    27    1
     3     1    28    1
     4     1    29    1
     5     2     3    1
     6     2    17    1
     7     2    30    1
     8     3     4    1
     9     4     5    2
    10     4     6    1
    11     6     7    2
    12     7     8    1
    13     7    31    1
    14     8     9    2
    15     8    10   am
    16    10    11    1
    17    10    32    1
    18    11    12   ar
    19    12    13   ar
    20    12    33    1
    21    13    14   ar
    22    13    34    1
    23    14    15   ar
    24    14    35    1
    25    15    16   ar
    26    15    36    1
    27    16     6    1
    28    16    11   ar
    29    17    18    2
    30    17    19   am
    31    19    20    1
    32    19    37    1
    33    20    21   ar
    34    21    22   ar
    35    21    38    1
    36    22    23   ar
    37    22    39    1
    38    23    24   ar
    39    23    40    1
    40    24    25   ar
    41    24    41    1
    42    25    26    1
    43    25    20   ar
@<TRIPOS>MOLECULE
*****
 41 43 0 0 0
SMALL
GASTEIGER

@<TRIPOS>ATOM
      1 C           0.3730   -0.9309   -2.6516 C.3     1  UNL11      -0.0189
      2 C           0.4633   -0.9614   -1.1545 C.3     1  UNL11       0.1761
      3 O          -0.7117   -0.6003   -0.5046 O.3     1  UNL11      -0.4487
      4 C          -1.1419    0.6768   -0.2942 C.2     1  UNL11       0.3410
      5 O          -0.2785    1.3636    0.3999 O.2     1  UNL11      -0.2449
      6 C          -2.3474    1.3385   -0.7065 C.2     1  UNL11       0.0820
      7 C          -2.4189    2.7312   -0.7474 C.2     1  UNL11       0.0674
      8 C          -3.5307    3.3962   -1.1283 C.2     1  UNL11       0.4077
      9 O          -3.5757    4.6577   -1.1587 O.2     1  UNL11      -0.2148
     10 N          -4.6257    2.7129   -1.4873 N.am    1  UNL11      -0.1444
     11 C          -4.6260    1.3511   -1.4708 C.ar    1  UNL11       0.2104
     12 C          -5.7455    0.6568   -1.8378 C.ar    1  UNL11       0.0097
     13 C          -5.7496   -0.7245   -1.8224 C.ar    1  UNL11      -0.0555
     14 C          -4.6411   -1.4311   -1.4421 C.ar    1  UNL11      -0.0608
     15 C          -3.5074   -0.7227   -1.0704 C.ar    1  UNL11      -0.0475
     16 C          -3.4739    0.6610   -1.0760 C.ar    1  UNL11       0.0599
     17 C           1.5988   -0.0666   -0.6954 C.2     1  UNL11       0.2579
     18 O           2.5498   -0.5486   -0.0412 O.2     1  UNL11      -0.2714
     19 N           1.5707    1.2951   -1.0101 N.am    1  UNL11      -0.2801
     20 C           0.5578    1.9752   -1.7254 C.ar    1  UNL11       0.0691
     21 C          -0.5487    2.5783   -1.1971 C.ar    1  UNL11      -0.0377
     22 C          -1.5094    3.2341   -1.9755 C.ar    1  UNL11      -0.0598
     23 C          -1.3730    3.2991   -3.3439 C.ar    1  UNL11      -0.0589
     24 C          -0.2660    2.6986   -3.8989 C.ar    1  UNL11      -0.0246
     25 C           0.6682    2.0578   -3.1130 C.ar    1  UNL11       0.1445
     26 F           1.7612    1.4694   -3.7029 F       1  UNL11      -0.2035
     27 H           0.2742   -1.9439   -3.0646 H       1  UNL11       0.0270
     28 H          -0.4208   -0.2378   -3.0166 H       1  UNL11       0.0270
     29 H           1.3279   -0.5197   -3.0397 H       1  UNL11       0.0270
     30 H           0.7131   -2.0008   -0.8550 H       1  UNL11       0.0830
     31 H          -1.5272    3.2649   -0.4548 H       1  UNL11       0.0728
     32 H          -5.5100    3.2059   -1.7898 H       1  UNL11       0.4475
     33 H          -6.6220    1.2232   -2.1386 H       1  UNL11       0.0683
     34 H          -6.6544   -1.2178   -2.1198 H       1  UNL11       0.0620
     35 H          -4.6628   -2.5019   -1.4363 H       1  UNL11       0.0618
     36 H          -2.6773   -1.3240   -0.7848 H       1  UNL11       0.0626
     37 H           2.4185    1.8574   -0.6595 H       1  UNL11       0.1550
     38 H          -0.7242    2.5697   -0.1383 H       1  UNL11       0.0637
     39 H          -2.3694    3.6959   -1.5000 H       1  UNL11       0.0618
     40 H          -2.1170    3.8090   -3.9656 H       1  UNL11       0.0618
     41 H          -0.1517    2.7450   -4.9711 H       1  UNL11       0.0647
@<TRIPOS>BOND
     1     1     2    1
     2     1    27    1
     3     1    28    1
     4     1    29    1
     5     2     3    1
     6     2    17    1
     7     2    30    1
     8     3     4    1
     9     4     5    2
    10     4     6    1
    11     6     7    2
    12     7     8    1
    13     7    31    1
    14     8     9    2
    15     8    10   am
    16    10    11    1
    17    10    32    1
    18    11    12   ar
    19    12    13   ar
    20    12    33    1
    21    13    14   ar
    22    13    34    1
    23    14    15   ar
    24    14    35    1
    25    15    16   ar
    26    15    36    1
    27    16     6    1
    28    16    11   ar
    29    17    18    2
    30    17    19   am
    31    19    20    1
    32    19    37    1
    33    20    21   ar
    34    21    22   ar
    35    21    38    1
    36    22    23   ar
    37    22    39    1
    38    23    24   ar
    39    23    40    1
    40    24    25   ar
    41    24    41    1
    42    25    26    1
    43    25    20   ar
@<TRIPOS>MOLECULE
*****
 41 43 0 0 0
SMALL
GASTEIGER

@<TRIPOS>ATOM
      1 C           0.3730   -0.9309   -2.6516 C.3     1  UNL11      -0.0189
      2 C           0.4633   -0.9614   -1.1545 C.3     1  UNL11       0.1761
      3 O          -0.7117   -0.6003   -0.5046 O.3     1  UNL11      -0.4487
      4 C          -1.4178   -1.3894    0.3550 C.2     1  UNL11       0.3410
      5 O          -0.8535   -2.5545    0.5073 O.2     1  UNL11      -0.2449
      6 C          -2.6311   -1.1337    1.0786 C.2     1  UNL11       0.0820
      7 C          -2.9678   -1.8941    2.1988 C.2     1  UNL11       0.0674
      8 C          -4.0975   -1.6896    2.9097 C.2     1  UNL11       0.4077
      9 O          -4.3847   -2.3887    3.9211 O.2     1  UNL11      -0.2148
     10 N          -4.9483   -0.7212    2.5447 N.am    1  UNL11      -0.1444
     11 C          -4.6822    0.0592    1.4608 C.ar    1  UNL11       0.2104
     12 C          -5.5530    1.0467    1.0911 C.ar    1  UNL11       0.0097
     13 C          -5.2864    1.8404   -0.0077 C.ar    1  UNL11      -0.0555
     14 C          -4.1516    1.6615   -0.7512 C.ar    1  UNL11      -0.0608
     15 C          -3.2709    0.6583   -0.3725 C.ar    1  UNL11      -0.0475
     16 C          -3.5114   -0.1521    0.7234 C.ar    1  UNL11       0.0599
     17 C           1.5988   -0.0666   -0.6954 C.2     1  UNL11       0.2579
     18 O           2.7497   -0.5370   -0.5580 O.2     1  UNL11      -0.2714
     19 N           1.3460    1.2822   -0.4292 N.am    1  UNL11      -0.2801
     20 C           0.0990    1.9422   -0.5262 C.ar    1  UNL11       0.0691
     21 C          -0.2000    3.0060   -1.3302 C.ar    1  UNL11      -0.0377
     22 C          -1.4641    3.6058   -1.3690 C.ar    1  UNL11      -0.0598
     23 C          -2.4853    3.1338   -0.5755 C.ar    1  UNL11      -0.0589
     24 C          -2.2076    2.0626    0.2428 C.ar    1  UNL11      -0.0246
     25 C          -0.9550    1.4869    0.2650 C.ar    1  UNL11       0.1445
     26 F          -0.7149    0.4183    1.0954 F       1  UNL11      -0.2035
     27 H           0.2742   -1.9439   -3.0646 H       1  UNL11       0.0270
     28 H          -0.4208   -0.2378   -3.0166 H       1  UNL11       0.0270
     29 H           1.3279   -0.5197   -3.0397 H       1  UNL11       0.0270
     30 H           0.7131   -2.0008   -0.8550 H       1  UNL11       0.0830
     31 H          -2.2705   -2.6696    2.4780 H       1  UNL11       0.0728
     32 H          -5.8398   -0.5380    3.0816 H       1  UNL11       0.4475
     33 H          -6.4518    1.1838    1.6851 H       1  UNL11       0.0683
     34 H          -6.0035    2.5996   -0.2525 H       1  UNL11       0.0620
     35 H          -3.9616    2.2865   -1.5999 H       1  UNL11       0.0618
     36 H          -2.4069    0.5657   -0.9867 H       1  UNL11       0.0626
     37 H           2.2061    1.8508   -0.1213 H       1  UNL11       0.1550
     38 H           0.5441    3.4298   -1.9771 H       1  UNL11       0.0637
     39 H          -1.6438    4.4496   -2.0283 H       1  UNL11       0.0618
     40 H          -3.4794    3.5934   -0.5955 H       1  UNL11       0.0618
     41 H          -3.0028    1.6864    0.8681 H       1  UNL11       0.0647
@<TRIPOS>BOND
     1     1     2    1
     2     1    27    1
     3     1    28    1
     4     1    29    1
     5     2     3    1
     6     2    17    1
     7     2    30    1
     8     3     4    1
     9     4     5    2
    10     4     6    1
    11     6     7    2
    12     7     8    1
    13     7    31    1
    14     8     9    2
    15     8    10   am
    16    10    11    1
    17    10    32    1
    18    11    12   ar
    19    12    13   ar
    20    12    33    1
    21    13    14   ar
    22    13    34    1
    23    14    15   ar
    24    14    35    1
    25    15    16   ar
    26    15    36    1
    27    16     6    1
    28    16    11   ar
    29    17    18    2
    30    17    19   am
    31    19    20    1
    32    19    37    1
    33    20    21   ar
    34    21    22   ar
    35    21    38    1
    36    22    23   ar
    37    22    39    1
    38    23    24   ar
    39    23    40    1
    40    24    25   ar
    41    24    41    1
    42    25    26    1
    43    25    20   ar
@<TRIPOS>MOLECULE
*****
 41 43 0 0 0
SMALL
GASTEIGER

@<TRIPOS>ATOM
      1 C           0.3730   -0.9309   -2.6516 C.3     1  UNL11      -0.0189
      2 C           0.4633   -0.9614   -1.1545 C.3     1  UNL11       0.1761
      3 O          -0.7117   -0.6003   -0.5046 O.3     1  UNL11      -0.4487
      4 C          -1.4178   -1.3894    0.3550 C.2     1  UNL11       0.3410
      5 O          -1.8063   -2.4933   -0.2192 O.2     1  UNL11      -0.2449
      6 C          -1.7760   -1.1886    1.7306 C.2     1  UNL11       0.0820
      7 C          -2.8249   -1.9055    2.3070 C.2     1  UNL11       0.0674
      8 C          -3.1968   -1.7497    3.5958 C.2     1  UNL11       0.4077
      9 O          -4.1492   -2.4081    4.0993 O.2     1  UNL11      -0.2148
     10 N          -2.5468   -0.8756    4.3759 N.am    1  UNL11      -0.1444
     11 C          -1.5128   -0.1422    3.8782 C.ar    1  UNL11       0.2104
     12 C          -0.8516    0.7491    4.6773 C.ar    1  UNL11       0.0097
     13 C           0.1976    1.4948    4.1761 C.ar    1  UNL11      -0.0555
     14 C           0.6015    1.3629    2.8753 C.ar    1  UNL11      -0.0608
     15 C          -0.0722    0.4575    2.0681 C.ar    1  UNL11      -0.0475
     16 C          -1.1267   -0.3031    2.5424 C.ar    1  UNL11       0.0599
     17 C           1.5988   -0.0666   -0.6954 C.2     1  UNL11       0.2579
     18 O           1.5324    0.5096    0.4129 O.2     1  UNL11      -0.2714
     19 N           2.7142    0.1057   -1.5201 N.am    1  UNL11      -0.2801
     20 C           2.9162   -0.4678   -2.7970 C.ar    1  UNL11       0.0691
     21 C           3.9354   -1.3006   -3.1646 C.ar    1  UNL11      -0.0377
     22 C           4.0661   -1.8289   -4.4542 C.ar    1  UNL11      -0.0598
     23 C           3.1461   -1.5212   -5.4310 C.ar    1  UNL11      -0.0589
     24 C           2.1104   -0.6839   -5.0840 C.ar    1  UNL11      -0.0246
     25 C           2.0010   -0.1748   -3.8073 C.ar    1  UNL11       0.1445
     26 F           0.9528    0.6585   -3.4975 F       1  UNL11      -0.2035
     27 H           0.2742   -1.9439   -3.0646 H       1  UNL11       0.0270
     28 H          -0.4208   -0.2378   -3.0166 H       1  UNL11       0.0270
     29 H           1.3279   -0.5197   -3.0397 H       1  UNL11       0.0270
     30 H           0.7131   -2.0008   -0.8550 H       1  UNL11       0.0830
     31 H          -3.3369   -2.6050    1.6636 H       1  UNL11       0.0728
     32 H          -2.8154   -0.7324    5.3877 H       1  UNL11       0.4475
     33 H          -1.1768    0.8493    5.7087 H       1  UNL11       0.0683
     34 H           0.6805    2.1786    4.8468 H       1  UNL11       0.0620
     35 H           1.4171    1.9495    2.5042 H       1  UNL11       0.0618
     36 H           0.2851    0.3976    1.0675 H       1  UNL11       0.0626
     37 H           3.4802    0.7446   -1.1165 H       1  UNL11       0.1550
     38 H           4.6913   -1.5861   -2.4583 H       1  UNL11       0.0637
     39 H           4.8977   -2.4864   -4.6890 H       1  UNL11       0.0618
     40 H           3.2358   -1.9274   -6.4444 H       1  UNL11       0.0618
     41 H           1.3849   -0.4377   -5.8441 H       1  UNL11       0.0647
@<TRIPOS>BOND
     1     1     2    1
     2     1    27    1
     3     1    28    1
     4     1    29    1
     5     2     3    1
     6     2    17    1
     7     2    30    1
     8     3     4    1
     9     4     5    2
    10     4     6    1
    11     6     7    2
    12     7     8    1
    13     7    31    1
    14     8     9    2
    15     8    10   am
    16    10    11    1
    17    10    32    1
    18    11    12   ar
    19    12    13   ar
    20    12    33    1
    21    13    14   ar
    22    13    34    1
    23    14    15   ar
    24    14    35    1
    25    15    16   ar
    26    15    36    1
    27    16     6    1
    28    16    11   ar
    29    17    18    2
    30    17    19   am
    31    19    20    1
    32    19    37    1
    33    20    21   ar
    34    21    22   ar
    35    21    38    1
    36    22    23   ar
    37    22    39    1
    38    23    24   ar
    39    23    40    1
    40    24    25   ar
    41    24    41    1
    42    25    26    1
    43    25    20   ar
@<TRIPOS>MOLECULE
*****
 41 43 0 0 0
SMALL
GASTEIGER

@<TRIPOS>ATOM
      1 C           0.3730   -0.9309   -2.6516 C.3     1  UNL11      -0.0189
      2 C           0.4633   -0.9614   -1.1545 C.3     1  UNL11       0.1761
      3 O          -0.7117   -0.6003   -0.5046 O.3     1  UNL11      -0.4487
      4 C          -1.3540    0.5960   -0.6328 C.2     1  UNL11       0.3410
      5 O          -1.7288    0.8078   -1.8632 O.2     1  UNL11      -0.2449
      6 C          -1.6605    1.6034    0.3430 C.2     1  UNL11       0.0820
      7 C          -1.9540    2.9101   -0.0481 C.2     1  UNL11       0.0674
      8 C          -2.2478    3.8896    0.8337 C.2     1  UNL11       0.4077
      9 O          -2.5108    5.0666    0.4599 O.2     1  UNL11      -0.2148
     10 N          -2.2650    3.6214    2.1462 N.am    1  UNL11      -0.1444
     11 C          -1.9879    2.3669    2.5982 C.ar    1  UNL11       0.2104
     12 C          -2.0063    2.0967    3.9387 C.ar    1  UNL11       0.0097
     13 C          -1.7259    0.8256    4.4009 C.ar    1  UNL11      -0.0555
     14 C          -1.4241   -0.1912    3.5362 C.ar    1  UNL11      -0.0608
     15 C          -1.4066    0.0874    2.1770 C.ar    1  UNL11      -0.0475
     16 C          -1.6833    1.3510    1.6848 C.ar    1  UNL11       0.0599
     17 C           1.5988   -0.0666   -0.6954 C.2     1  UNL11       0.2579
     18 O           2.2864    0.5531   -1.5368 O.2     1  UNL11      -0.2714
     19 N           1.8666    0.0571    0.6709 N.am    1  UNL11      -0.2801
     20 C           1.1853   -0.5922    1.7266 C.ar    1  UNL11       0.0691
     21 C           0.5117    0.0077    2.7531 C.ar    1  UNL11      -0.0377
     22 C          -0.1400   -0.7081    3.7641 C.ar    1  UNL11      -0.0598
     23 C          -0.1275   -2.0847    3.7637 C.ar    1  UNL11      -0.0589
     24 C           0.5450   -2.7113    2.7393 C.ar    1  UNL11      -0.0246
     25 C           1.1802   -1.9863    1.7535 C.ar    1  UNL11       0.1445
     26 F           1.8418   -2.6470    0.7461 F       1  UNL11      -0.2035
     27 H           0.2742   -1.9439   -3.0646 H       1  UNL11       0.0270
     28 H          -0.4208   -0.2378   -3.0166 H       1  UNL11       0.0270
     29 H           1.3279   -0.5197   -3.0397 H       1  UNL11       0.0270
     30 H           0.7131   -2.0008   -0.8550 H       1  UNL11       0.0830
     31 H          -1.9354    3.1076   -1.1094 H       1  UNL11       0.0728
     32 H          -2.4913    4.3674    2.8595 H       1  UNL11       0.4475
     33 H          -2.2465    2.9078    4.6199 H       1  UNL11       0.0683
     34 H          -1.7546    0.6697    5.4617 H       1  UNL11       0.0620
     35 H          -1.2094   -1.1705    3.9128 H       1  UNL11       0.0618
     36 H          -1.1659   -0.7406    1.5533 H       1  UNL11       0.0626
     37 H           2.6787    0.7199    0.9140 H       1  UNL11       0.1550
     38 H           0.4576    1.0774    2.8216 H       1  UNL11       0.0637
     39 H          -0.6599   -0.1769    4.5556 H       1  UNL11       0.0618
     40 H          -0.6331   -2.6579    4.5484 H       1  UNL11       0.0618
     41 H           0.5596   -3.7905    2.7317 H       1  UNL11       0.0647
@<TRIPOS>BOND
     1     1     2    1
     2     1    27    1
     3     1    28    1
     4     1    29    1
     5     2     3    1
     6     2    17    1
     7     2    30    1
     8     3     4    1
     9     4     5    2
    10     4     6    1
    11     6     7    2
    12     7     8    1
    13     7    31    1
    14     8     9    2
    15     8    10   am
    16    10    11    1
    17    10    32    1
    18    11    12   ar
    19    12    13   ar
    20    12    33    1
    21    13    14   ar
    22    13    34    1
    23    14    15   ar
    24    14    35    1
    25    15    16   ar
    26    15    36    1
    27    16     6    1
    28    16    11   ar
    29    17    18    2
    30    17    19   am
    31    19    20    1
    32    19    37    1
    33    20    21   ar
    34    21    22   ar
    35    21    38    1
    36    22    23   ar
    37    22    39    1
    38    23    24   ar
    39    23    40    1
    40    24    25   ar
    41    24    41    1
    42    25    26    1
    43    25    20   ar
@<TRIPOS>MOLECULE
*****
 41 43 0 0 0
SMALL
GASTEIGER

@<TRIPOS>ATOM
      1 C           0.3730   -0.9309   -2.6516 C.3     1  UNL11      -0.0189
      2 C           0.4633   -0.9614   -1.1545 C.3     1  UNL11       0.1761
      3 O          -0.7117   -0.6003   -0.5046 O.3     1  UNL11      -0.4487
      4 C          -1.9095   -1.2432   -0.6152 C.2     1  UNL11       0.3410
      5 O          -1.7493   -2.5140   -0.8571 O.2     1  UNL11      -0.2449
      6 C          -3.2521   -0.7462   -0.5088 C.2     1  UNL11       0.0820
      7 C          -3.5182    0.4565    0.1463 C.2     1  UNL11       0.0674
      8 C          -4.7641    0.9623    0.2706 C.2     1  UNL11       0.4077
      9 O          -4.9846    2.0529    0.8673 O.2     1  UNL11      -0.2148
     10 N          -5.8068    0.3004   -0.2486 N.am    1  UNL11      -0.1444
     11 C          -5.6195   -0.8801   -0.9014 C.ar    1  UNL11       0.2104
     12 C          -6.6861   -1.5531   -1.4300 C.ar    1  UNL11       0.0097
     13 C          -6.5001   -2.7507   -2.0928 C.ar    1  UNL11      -0.0555
     14 C          -5.2519   -3.2928   -2.2376 C.ar    1  UNL11      -0.0608
     15 C          -4.1725   -2.6066   -1.6997 C.ar    1  UNL11      -0.0475
     16 C          -4.3283   -1.4051   -1.0306 C.ar    1  UNL11       0.0599
     17 C           1.5988   -0.0666   -0.6954 C.2     1  UNL11       0.2579
     18 O           2.2864    0.5531   -1.5368 O.2     1  UNL11      -0.2714
     19 N           1.8666    0.0571    0.6709 N.am    1  UNL11      -0.2801
     20 C           1.1853   -0.5922    1.7266 C.ar    1  UNL11       0.0691
     21 C           0.1370   -1.4608    1.6081 C.ar    1  UNL11      -0.0377
     22 C          -0.4859   -2.0645    2.7065 C.ar    1  UNL11      -0.0598
     23 C          -0.0543   -1.7992    3.9865 C.ar    1  UNL11      -0.0589
     24 C           1.0005   -0.9270    4.1308 C.ar    1  UNL11      -0.0246
     25 C           1.5996   -0.3435    3.0346 C.ar    1  UNL11       0.1445
     26 F           2.6509    0.5227    3.2177 F       1  UNL11      -0.2035
     27 H           0.2742   -1.9439   -3.0646 H       1  UNL11       0.0270
     28 H          -0.4208   -0.2378   -3.0166 H       1  UNL11       0.0270
     29 H           1.3279   -0.5197   -3.0397 H       1  UNL11       0.0270
     30 H           0.7131   -2.0008   -0.8550 H       1  UNL11       0.0830
     31 H          -2.6660    0.9758    0.5581 H       1  UNL11       0.0728
     32 H          -6.7927    0.6715   -0.1669 H       1  UNL11       0.4475
     33 H          -7.6741   -1.1179   -1.3118 H       1  UNL11       0.0683
     34 H          -7.3715   -3.2359   -2.4875 H       1  UNL11       0.0620
     35 H          -5.1269   -4.2224   -2.7547 H       1  UNL11       0.0618
     36 H          -3.2279   -3.0752   -1.8427 H       1  UNL11       0.0626
     37 H           2.6787    0.7199    0.9140 H       1  UNL11       0.1550
     38 H          -0.2555   -1.7170    0.6426 H       1  UNL11       0.0637
     39 H          -1.3158   -2.7474    2.5514 H       1  UNL11       0.0618
     40 H          -0.5324   -2.2644    4.8554 H       1  UNL11       0.0618
     41 H           1.3450   -0.7136    5.1311 H       1  UNL11       0.0647
@<TRIPOS>BOND
     1     1     2    1
     2     1    27    1
     3     1    28    1
     4     1    29    1
     5     2     3    1
     6     2    17    1
     7     2    30    1
     8     3     4    1
     9     4     5    2
    10     4     6    1
    11     6     7    2
    12     7     8    1
    13     7    31    1
    14     8     9    2
    15     8    10   am
    16    10    11    1
    17    10    32    1
    18    11    12   ar
    19    12    13   ar
    20    12    33    1
    21    13    14   ar
    22    13    34    1
    23    14    15   ar
    24    14    35    1
    25    15    16   ar
    26    15    36    1
    27    16     6    1
    28    16    11   ar
    29    17    18    2
    30    17    19   am
    31    19    20    1
    32    19    37    1
    33    20    21   ar
    34    21    22   ar
    35    21    38    1
    36    22    23   ar
    37    22    39    1
    38    23    24   ar
    39    23    40    1
    40    24    25   ar
    41    24    41    1
    42    25    26    1
    43    25    20   ar
@<TRIPOS>MOLECULE
*****
 41 43 0 0 0
SMALL
GASTEIGER

@<TRIPOS>ATOM
      1 C           0.3730   -0.9309   -2.6516 C.3     1  UNL11      -0.0189
      2 C           0.4633   -0.9614   -1.1545 C.3     1  UNL11       0.1761
      3 O          -0.7117   -0.6003   -0.5046 O.3     1  UNL11      -0.4487
      4 C          -1.4178   -1.3894    0.3550 C.2     1  UNL11       0.3410
      5 O          -1.8063   -2.4933   -0.2192 O.2     1  UNL11      -0.2449
      6 C          -1.7760   -1.1886    1.7306 C.2     1  UNL11       0.0820
      7 C          -2.8249   -1.9055    2.3070 C.2     1  UNL11       0.0674
      8 C          -3.1968   -1.7497    3.5958 C.2     1  UNL11       0.4077
      9 O          -4.1492   -2.4081    4.0993 O.2     1  UNL11      -0.2148
     10 N          -2.5468   -0.8756    4.3759 N.am    1  UNL11      -0.1444
     11 C          -1.5128   -0.1422    3.8782 C.ar    1  UNL11       0.2104
     12 C          -0.8516    0.7491    4.6773 C.ar    1  UNL11       0.0097
     13 C           0.1976    1.4948    4.1761 C.ar    1  UNL11      -0.0555
     14 C           0.6015    1.3629    2.8753 C.ar    1  UNL11      -0.0608
     15 C          -0.0722    0.4575    2.0681 C.ar    1  UNL11      -0.0475
     16 C          -1.1267   -0.3031    2.5424 C.ar    1  UNL11       0.0599
     17 C           1.5988   -0.0666   -0.6954 C.2     1  UNL11       0.2579
     18 O           2.7497   -0.5370   -0.5580 O.2     1  UNL11      -0.2714
     19 N           1.3460    1.2822   -0.4292 N.am    1  UNL11      -0.2801
     20 C           0.0990    1.9422   -0.5262 C.ar    1  UNL11       0.0691
     21 C          -0.2000    3.0060   -1.3302 C.ar    1  UNL11      -0.0377
     22 C          -1.4641    3.6058   -1.3690 C.ar    1  UNL11      -0.0598
     23 C          -2.4853    3.1338   -0.5755 C.ar    1  UNL11      -0.0589
     24 C          -2.2076    2.0626    0.2428 C.ar    1  UNL11      -0.0246
     25 C          -0.9550    1.4869    0.2650 C.ar    1  UNL11       0.1445
     26 F          -0.7149    0.4183    1.0954 F       1  UNL11      -0.2035
     27 H           0.2742   -1.9439   -3.0646 H       1  UNL11       0.0270
     28 H          -0.4208   -0.2378   -3.0166 H       1  UNL11       0.0270
     29 H           1.3279   -0.5197   -3.0397 H       1  UNL11       0.0270
     30 H           0.7131   -2.0008   -0.8550 H       1  UNL11       0.0830
     31 H          -3.3369   -2.6050    1.6636 H       1  UNL11       0.0728
     32 H          -2.8154   -0.7324    5.3877 H       1  UNL11       0.4475
     33 H          -1.1768    0.8493    5.7087 H       1  UNL11       0.0683
     34 H           0.6805    2.1786    4.8468 H       1  UNL11       0.0620
     35 H           1.4171    1.9495    2.5042 H       1  UNL11       0.0618
     36 H           0.2851    0.3976    1.0675 H       1  UNL11       0.0626
     37 H           2.2061    1.8508   -0.1213 H       1  UNL11       0.1550
     38 H           0.5441    3.4298   -1.9771 H       1  UNL11       0.0637
     39 H          -1.6438    4.4496   -2.0283 H       1  UNL11       0.0618
     40 H          -3.4794    3.5934   -0.5955 H       1  UNL11       0.0618
     41 H          -3.0028    1.6864    0.8681 H       1  UNL11       0.0647
@<TRIPOS>BOND
     1     1     2    1
     2     1    27    1
     3     1    28    1
     4     1    29    1
     5     2     3    1
     6     2    17    1
     7     2    30    1
     8     3     4    1
     9     4     5    2
    10     4     6    1
    11     6     7    2
    12     7     8    1
    13     7    31    1
    14     8     9    2
    15     8    10   am
    16    10    11    1
    17    10    32    1
    18    11    12   ar
    19    12    13   ar
    20    12    33    1
    21    13    14   ar
    22    13    34    1
    23    14    15   ar
    24    14    35    1
    25    15    16   ar
    26    15    36    1
    27    16     6    1
    28    16    11   ar
    29    17    18    2
    30    17    19   am
    31    19    20    1
    32    19    37    1
    33    20    21   ar
    34    21    22   ar
    35    21    38    1
    36    22    23   ar
    37    22    39    1
    38    23    24   ar
    39    23    40    1
    40    24    25   ar
    41    24    41    1
    42    25    26    1
    43    25    20   ar
@<TRIPOS>MOLECULE
*****
 41 43 0 0 0
SMALL
GASTEIGER

@<TRIPOS>ATOM
      1 C           0.3730   -0.9309   -2.6516 C.3     1  UNL11      -0.0189
      2 C           0.4633   -0.9614   -1.1545 C.3     1  UNL11       0.1761
      3 O          -0.7117   -0.6003   -0.5046 O.3     1  UNL11      -0.4487
      4 C          -1.3540    0.5960   -0.6328 C.2     1  UNL11       0.3410
      5 O          -1.7288    0.8078   -1.8632 O.2     1  UNL11      -0.2449
      6 C          -1.6605    1.6034    0.3430 C.2     1  UNL11       0.0820
      7 C          -2.3388    2.7669   -0.0212 C.2     1  UNL11       0.0674
      8 C          -2.6482    3.7407    0.8617 C.2     1  UNL11       0.4077
      9 O          -3.2628    4.7868    0.5125 O.2     1  UNL11      -0.2148
     10 N          -2.3001    3.6083    2.1487 N.am    1  UNL11      -0.1444
     11 C          -1.6359    2.4979    2.5736 C.ar    1  UNL11       0.2104
     12 C          -1.2821    2.3662    3.8880 C.ar    1  UNL11       0.0097
     13 C          -0.6083    1.2413    4.3227 C.ar    1  UNL11      -0.0555
     14 C          -0.2786    0.2349    3.4560 C.ar    1  UNL11      -0.0608
     15 C          -0.6395    0.3728    2.1233 C.ar    1  UNL11      -0.0475
     16 C          -1.3148    1.4881    1.6590 C.ar    1  UNL11       0.0599
     17 C           1.5988   -0.0666   -0.6954 C.2     1  UNL11       0.2579
     18 O           2.5960    0.1058   -1.4307 O.2     1  UNL11      -0.2714
     19 N           1.5187    0.5598    0.5516 N.am    1  UNL11      -0.2801
     20 C           2.4818    1.4209    1.1269 C.ar    1  UNL11       0.0691
     21 C           2.5407    2.7800    0.9982 C.ar    1  UNL11      -0.0377
     22 C           3.5301    3.5649    1.6017 C.ar    1  UNL11      -0.0598
     23 C           4.5111    2.9812    2.3712 C.ar    1  UNL11      -0.0589
     24 C           4.4723    1.6130    2.5153 C.ar    1  UNL11      -0.0246
     25 C           3.4882    0.8591    1.9117 C.ar    1  UNL11       0.1445
     26 F           3.4816   -0.5052    2.0783 F       1  UNL11      -0.2035
     27 H           0.2742   -1.9439   -3.0646 H       1  UNL11       0.0270
     28 H          -0.4208   -0.2378   -3.0166 H       1  UNL11       0.0270
     29 H           1.3279   -0.5197   -3.0397 H       1  UNL11       0.0270
     30 H           0.7131   -2.0008   -0.8550 H       1  UNL11       0.0830
     31 H          -2.6112    2.8562   -1.0621 H       1  UNL11       0.0728
     32 H          -2.5287    4.3535    2.8621 H       1  UNL11       0.4475
     33 H          -1.5465    3.1682    4.5709 H       1  UNL11       0.0683
     34 H          -0.3555    1.1902    5.3638 H       1  UNL11       0.0620
     35 H           0.2439   -0.6298    3.8111 H       1  UNL11       0.0618
     36 H          -0.3574   -0.4398    1.4967 H       1  UNL11       0.0626
     37 H           0.6222    0.3469    1.1074 H       1  UNL11       0.1550
     38 H           1.8107    3.3070    0.4140 H       1  UNL11       0.0637
     39 H           3.5267    4.6419    1.4641 H       1  UNL11       0.0618
     40 H           5.2916    3.5829    2.8495 H       1  UNL11       0.0618
     41 H           5.2379    1.1475    3.1170 H       1  UNL11       0.0647
@<TRIPOS>BOND
     1     1     2    1
     2     1    27    1
     3     1    28    1
     4     1    29    1
     5     2     3    1
     6     2    17    1
     7     2    30    1
     8     3     4    1
     9     4     5    2
    10     4     6    1
    11     6     7    2
    12     7     8    1
    13     7    31    1
    14     8     9    2
    15     8    10   am
    16    10    11    1
    17    10    32    1
    18    11    12   ar
    19    12    13   ar
    20    12    33    1
    21    13    14   ar
    22    13    34    1
    23    14    15   ar
    24    14    35    1
    25    15    16   ar
    26    15    36    1
    27    16     6    1
    28    16    11   ar
    29    17    18    2
    30    17    19   am
    31    19    20    1
    32    19    37    1
    33    20    21   ar
    34    21    22   ar
    35    21    38    1
    36    22    23   ar
    37    22    39    1
    38    23    24   ar
    39    23    40    1
    40    24    25   ar
    41    24    41    1
    42    25    26    1
    43    25    20   ar
@<TRIPOS>MOLECULE
*****
 41 43 0 0 0
SMALL
GASTEIGER

@<TRIPOS>ATOM
      1 C           0.3730   -0.9309   -2.6516 C.3     1  UNL11      -0.0189
      2 C           0.4633   -0.9614   -1.1545 C.3     1  UNL11       0.1761
      3 O          -0.7117   -0.6003   -0.5046 O.3     1  UNL11      -0.4487
      4 C          -1.4178   -1.3894    0.3550 C.2     1  UNL11       0.3410
      5 O          -0.7045   -1.7217    1.3941 O.2     1  UNL11      -0.2449
      6 C          -2.7647   -1.8811    0.2827 C.2     1  UNL11       0.0820
      7 C          -3.2860   -2.6860    1.2961 C.2     1  UNL11       0.0674
      8 C          -4.5460   -3.1708    1.2706 C.2     1  UNL11       0.4077
      9 O          -4.9997   -3.8979    2.1978 O.2     1  UNL11      -0.2148
     10 N          -5.3507   -2.8812    0.2392 N.am    1  UNL11      -0.1444
     11 C          -4.9067   -2.1008   -0.7849 C.ar    1  UNL11       0.2104
     12 C          -5.7307   -1.8073   -1.8361 C.ar    1  UNL11       0.0097
     13 C          -5.2840   -1.0161   -2.8765 C.ar    1  UNL11      -0.0555
     14 C          -4.0135   -0.5077   -2.8839 C.ar    1  UNL11      -0.0608
     15 C          -3.1808   -0.8081   -1.8153 C.ar    1  UNL11      -0.0475
     16 C          -3.6007   -1.5979   -0.7591 C.ar    1  UNL11       0.0599
     17 C           1.5988   -0.0666   -0.6954 C.2     1  UNL11       0.2579
     18 O           2.7497   -0.5370   -0.5580 O.2     1  UNL11      -0.2714
     19 N           1.3460    1.2822   -0.4292 N.am    1  UNL11      -0.2801
     20 C           0.0990    1.9422   -0.5262 C.ar    1  UNL11       0.0691
     21 C          -0.8295    2.0809    0.4668 C.ar    1  UNL11      -0.0377
     22 C          -2.0454    2.7515    0.2909 C.ar    1  UNL11      -0.0598
     23 C          -2.3627    3.3140   -0.9249 C.ar    1  UNL11      -0.0589
     24 C          -1.4426    3.1869   -1.9406 C.ar    1  UNL11      -0.0246
     25 C          -0.2507    2.5220   -1.7452 C.ar    1  UNL11       0.1445
     26 F           0.6439    2.4153   -2.7832 F       1  UNL11      -0.2035
     27 H           0.2742   -1.9439   -3.0646 H       1  UNL11       0.0270
     28 H          -0.4208   -0.2378   -3.0166 H       1  UNL11       0.0270
     29 H           1.3279   -0.5197   -3.0397 H       1  UNL11       0.0270
     30 H           0.7131   -2.0008   -0.8550 H       1  UNL11       0.0830
     31 H          -2.6234   -2.9087    2.1189 H       1  UNL11       0.0728
     32 H          -6.3411   -3.2463    0.1919 H       1  UNL11       0.4475
     33 H          -6.7378   -2.2137   -1.8245 H       1  UNL11       0.0683
     34 H          -5.9721   -0.8177   -3.6751 H       1  UNL11       0.0620
     35 H          -3.6846    0.1039   -3.6992 H       1  UNL11       0.0618
     36 H          -2.2058   -0.3860   -1.8751 H       1  UNL11       0.0626
     37 H           2.2061    1.8508   -0.1213 H       1  UNL11       0.1550
     38 H          -0.6537    1.6693    1.4423 H       1  UNL11       0.0637
     39 H          -2.7455    2.8304    1.1171 H       1  UNL11       0.0618
     40 H          -3.3106    3.8416   -1.0770 H       1  UNL11       0.0618
     41 H          -1.6838    3.6251   -2.8970 H       1  UNL11       0.0647
@<TRIPOS>BOND
     1     1     2    1
     2     1    27    1
     3     1    28    1
     4     1    29    1
     5     2     3    1
     6     2    17    1
     7     2    30    1
     8     3     4    1
     9     4     5    2
    10     4     6    1
    11     6     7    2
    12     7     8    1
    13     7    31    1
    14     8     9    2
    15     8    10   am
    16    10    11    1
    17    10    32    1
    18    11    12   ar
    19    12    13   ar
    20    12    33    1
    21    13    14   ar
    22    13    34    1
    23    14    15   ar
    24    14    35    1
    25    15    16   ar
    26    15    36    1
    27    16     6    1
    28    16    11   ar
    29    17    18    2
    30    17    19   am
    31    19    20    1
    32    19    37    1
    33    20    21   ar
    34    21    22   ar
    35    21    38    1
    36    22    23   ar
    37    22    39    1
    38    23    24   ar
    39    23    40    1
    40    24    25   ar
    41    24    41    1
    42    25    26    1
    43    25    20   ar
@<TRIPOS>MOLECULE
*****
 41 43 0 0 0
SMALL
GASTEIGER

@<TRIPOS>ATOM
      1 C           0.3730   -0.9309   -2.6516 C.3     1  UNL11      -0.0189
      2 C           0.4633   -0.9614   -1.1545 C.3     1  UNL11       0.1761
      3 O          -0.7117   -0.6003   -0.5046 O.3     1  UNL11      -0.4487
      4 C          -1.9095   -1.2432   -0.6152 C.2     1  UNL11       0.3410
      5 O          -2.3295   -1.2624   -1.8490 O.2     1  UNL11      -0.2449
      6 C          -2.7315   -1.8694    0.3814 C.2     1  UNL11       0.0820
      7 C          -2.1921   -2.2652    1.6057 C.2     1  UNL11       0.0674
      8 C          -2.9265   -2.8572    2.5720 C.2     1  UNL11       0.4077
      9 O          -2.4198   -3.2083    3.6739 O.2     1  UNL11      -0.2148
     10 N          -4.2313   -3.0856    2.3716 N.am    1  UNL11      -0.1444
     11 C          -4.8233   -2.7249    1.1993 C.ar    1  UNL11       0.2104
     12 C          -6.1554   -2.9596    0.9981 C.ar    1  UNL11       0.0097
     13 C          -6.7593   -2.5951   -0.1896 C.ar    1  UNL11      -0.0555
     14 C          -6.0461   -1.9933   -1.1905 C.ar    1  UNL11      -0.0608
     15 C          -4.6947   -1.7571   -0.9822 C.ar    1  UNL11      -0.0475
     16 C          -4.0627   -2.1112    0.1972 C.ar    1  UNL11       0.0599
     17 C           1.5988   -0.0666   -0.6954 C.2     1  UNL11       0.2579
     18 O           2.2864    0.5531   -1.5368 O.2     1  UNL11      -0.2714
     19 N           1.8666    0.0571    0.6709 N.am    1  UNL11      -0.2801
     20 C           1.1853   -0.5922    1.7266 C.ar    1  UNL11       0.0691
     21 C           1.7289   -1.4464    2.6443 C.ar    1  UNL11      -0.0377
     22 C           0.9844   -2.0512    3.6636 C.ar    1  UNL11      -0.0598
     23 C          -0.3641   -1.8017    3.7851 C.ar    1  UNL11      -0.0589
     24 C          -0.9339   -0.9442    2.8718 C.ar    1  UNL11      -0.0246
     25 C          -0.1814   -0.3593    1.8754 C.ar    1  UNL11       0.1445
     26 F          -0.7853    0.4920    0.9812 F       1  UNL11      -0.2035
     27 H           0.2742   -1.9439   -3.0646 H       1  UNL11       0.0270
     28 H          -0.4208   -0.2378   -3.0166 H       1  UNL11       0.0270
     29 H           1.3279   -0.5197   -3.0397 H       1  UNL11       0.0270
     30 H           0.7131   -2.0008   -0.8550 H       1  UNL11       0.0830
     31 H          -1.1395   -2.0731    1.7494 H       1  UNL11       0.0728
     32 H          -4.8309   -3.5470    3.1092 H       1  UNL11       0.4475
     33 H          -6.7160   -3.4375    1.7961 H       1  UNL11       0.0683
     34 H          -7.8064   -2.8028   -0.2938 H       1  UNL11       0.0620
     35 H          -6.5313   -1.7177   -2.1047 H       1  UNL11       0.0618
     36 H          -4.1920   -1.2873   -1.7939 H       1  UNL11       0.0626
     37 H           2.6787    0.7199    0.9140 H       1  UNL11       0.1550
     38 H           2.7738   -1.6898    2.6144 H       1  UNL11       0.0637
     39 H           1.4707   -2.7223    4.3651 H       1  UNL11       0.0618
     40 H          -0.9591   -2.2680    4.5778 H       1  UNL11       0.0618
     41 H          -1.9906   -0.7433    2.9600 H       1  UNL11       0.0647
@<TRIPOS>BOND
     1     1     2    1
     2     1    27    1
     3     1    28    1
     4     1    29    1
     5     2     3    1
     6     2    17    1
     7     2    30    1
     8     3     4    1
     9     4     5    2
    10     4     6    1
    11     6     7    2
    12     7     8    1
    13     7    31    1
    14     8     9    2
    15     8    10   am
    16    10    11    1
    17    10    32    1
    18    11    12   ar
    19    12    13   ar
    20    12    33    1
    21    13    14   ar
    22    13    34    1
    23    14    15   ar
    24    14    35    1
    25    15    16   ar
    26    15    36    1
    27    16     6    1
    28    16    11   ar
    29    17    18    2
    30    17    19   am
    31    19    20    1
    32    19    37    1
    33    20    21   ar
    34    21    22   ar
    35    21    38    1
    36    22    23   ar
    37    22    39    1
    38    23    24   ar
    39    23    40    1
    40    24    25   ar
    41    24    41    1
    42    25    26    1
    43    25    20   ar
@<TRIPOS>MOLECULE
*****
 41 43 0 0 0
SMALL
GASTEIGER

@<TRIPOS>ATOM
      1 C           0.3730   -0.9309   -2.6516 C.3     1  UNL11      -0.0189
      2 C           0.4633   -0.9614   -1.1545 C.3     1  UNL11       0.1761
      3 O          -0.7117   -0.6003   -0.5046 O.3     1  UNL11      -0.4487
      4 C          -1.1419    0.6768   -0.2942 C.2     1  UNL11       0.3410
      5 O          -0.7300    1.4807   -1.2339 O.2     1  UNL11      -0.2449
      6 C          -1.9421    1.2335    0.7598 C.2     1  UNL11       0.0820
      7 C          -2.2652    2.5906    0.7698 C.2     1  UNL11       0.0674
      8 C          -3.0144    3.1576    1.7397 C.2     1  UNL11       0.4077
      9 O          -3.2962    4.3883    1.7311 O.2     1  UNL11      -0.2148
     10 N          -3.4797    2.4066    2.7470 N.am    1  UNL11      -0.1444
     11 C          -3.2024    1.0743    2.8000 C.ar    1  UNL11       0.2104
     12 C          -3.6789    0.3108    3.8296 C.ar    1  UNL11       0.0097
     13 C          -3.3998   -1.0409    3.8869 C.ar    1  UNL11      -0.0555
     14 C          -2.6440   -1.6488    2.9215 C.ar    1  UNL11      -0.0608
     15 C          -2.1625   -0.8703    1.8787 C.ar    1  UNL11      -0.0475
     16 C          -2.4259    0.4859    1.7950 C.ar    1  UNL11       0.0599
     17 C           1.5988   -0.0666   -0.6954 C.2     1  UNL11       0.2579
     18 O           2.5960    0.1058   -1.4307 O.2     1  UNL11      -0.2714
     19 N           1.5187    0.5598    0.5516 N.am    1  UNL11      -0.2801
     20 C           0.4651    0.4441    1.4880 C.ar    1  UNL11       0.0691
     21 C          -0.6435    1.2388    1.5702 C.ar    1  UNL11      -0.0377
     22 C          -1.6461    1.0588    2.5301 C.ar    1  UNL11      -0.0598
     23 C          -1.5518    0.0443    3.4560 C.ar    1  UNL11      -0.0589
     24 C          -0.4435   -0.7693    3.3928 C.ar    1  UNL11      -0.0246
     25 C           0.5323   -0.5738    2.4385 C.ar    1  UNL11       0.1445
     26 F           1.6251   -1.4067    2.4062 F       1  UNL11      -0.2035
     27 H           0.2742   -1.9439   -3.0646 H       1  UNL11       0.0270
     28 H          -0.4208   -0.2378   -3.0166 H       1  UNL11       0.0270
     29 H           1.3279   -0.5197   -3.0397 H       1  UNL11       0.0270
     30 H           0.7131   -2.0008   -0.8550 H       1  UNL11       0.0830
     31 H          -1.8818    3.1799   -0.0495 H       1  UNL11       0.0728
     32 H          -4.0682    2.8224    3.5198 H       1  UNL11       0.4475
     33 H          -4.2781    0.7990    4.5927 H       1  UNL11       0.0683
     34 H          -3.7987   -1.5916    4.7164 H       1  UNL11       0.0620
     35 H          -2.4378   -2.6980    2.9824 H       1  UNL11       0.0618
     36 H          -1.5818   -1.3962    1.1586 H       1  UNL11       0.0626
     37 H           2.3579    1.1871    0.7969 H       1  UNL11       0.1550
     38 H          -0.7877    2.0505    0.8830 H       1  UNL11       0.0637
     39 H          -2.5056    1.7221    2.5474 H       1  UNL11       0.0618
     40 H          -2.3288   -0.1083    4.2129 H       1  UNL11       0.0618
     41 H          -0.3619   -1.5670    4.1152 H       1  UNL11       0.0647
@<TRIPOS>BOND
     1     1     2    1
     2     1    27    1
     3     1    28    1
     4     1    29    1
     5     2     3    1
     6     2    17    1
     7     2    30    1
     8     3     4    1
     9     4     5    2
    10     4     6    1
    11     6     7    2
    12     7     8    1
    13     7    31    1
    14     8     9    2
    15     8    10   am
    16    10    11    1
    17    10    32    1
    18    11    12   ar
    19    12    13   ar
    20    12    33    1
    21    13    14   ar
    22    13    34    1
    23    14    15   ar
    24    14    35    1
    25    15    16   ar
    26    15    36    1
    27    16     6    1
    28    16    11   ar
    29    17    18    2
    30    17    19   am
    31    19    20    1
    32    19    37    1
    33    20    21   ar
    34    21    22   ar
    35    21    38    1
    36    22    23   ar
    37    22    39    1
    38    23    24   ar
    39    23    40    1
    40    24    25   ar
    41    24    41    1
    42    25    26    1
    43    25    20   ar
@<TRIPOS>MOLECULE
*****
 41 43 0 0 0
SMALL
GASTEIGER

@<TRIPOS>ATOM
      1 C           0.3730   -0.9309   -2.6516 C.3     1  UNL11      -0.0189
      2 C           0.4633   -0.9614   -1.1545 C.3     1  UNL11       0.1761
      3 O          -0.7117   -0.6003   -0.5046 O.3     1  UNL11      -0.4487
      4 C          -1.4178   -1.3894    0.3550 C.2     1  UNL11       0.3410
      5 O          -0.7045   -1.7217    1.3941 O.2     1  UNL11      -0.2449
      6 C          -2.7647   -1.8811    0.2827 C.2     1  UNL11       0.0820
      7 C          -3.4377   -1.9422   -0.9378 C.2     1  UNL11       0.0674
      8 C          -4.7038   -2.3969   -1.0536 C.2     1  UNL11       0.4077
      9 O          -5.2961   -2.4445   -2.1677 O.2     1  UNL11      -0.2148
     10 N          -5.3645   -2.8134    0.0350 N.am    1  UNL11      -0.1444
     11 C          -4.7680   -2.7813    1.2589 C.ar    1  UNL11       0.2104
     12 C          -5.4452   -3.2071    2.3680 C.ar    1  UNL11       0.0097
     13 C          -4.8435   -3.1761    3.6111 C.ar    1  UNL11      -0.0555
     14 C          -3.5620   -2.7216    3.7657 C.ar    1  UNL11      -0.0608
     15 C          -2.8785   -2.2906    2.6377 C.ar    1  UNL11      -0.0475
     16 C          -3.4555   -2.3100    1.3798 C.ar    1  UNL11       0.0599
     17 C           1.5988   -0.0666   -0.6954 C.2     1  UNL11       0.2579
     18 O           1.9194    0.9348   -1.3730 O.2     1  UNL11      -0.2714
     19 N           2.2790   -0.3719    0.4870 N.am    1  UNL11      -0.2801
     20 C           3.3526    0.3532    1.0543 C.ar    1  UNL11       0.0691
     21 C           4.6110   -0.1164    1.3055 C.ar    1  UNL11      -0.0377
     22 C           5.6228    0.6677    1.8716 C.ar    1  UNL11      -0.0598
     23 C           5.3826    1.9811    2.2074 C.ar    1  UNL11      -0.0589
     24 C           4.1219    2.4763    1.9635 C.ar    1  UNL11      -0.0246
     25 C           3.1400    1.6860    1.4048 C.ar    1  UNL11       0.1445
     26 F           1.8925    2.2154    1.1758 F       1  UNL11      -0.2035
     27 H           0.2742   -1.9439   -3.0646 H       1  UNL11       0.0270
     28 H          -0.4208   -0.2378   -3.0166 H       1  UNL11       0.0270
     29 H           1.3279   -0.5197   -3.0397 H       1  UNL11       0.0270
     30 H           0.7131   -2.0008   -0.8550 H       1  UNL11       0.0830
     31 H          -2.8898   -1.6026   -1.8039 H       1  UNL11       0.0728
     32 H          -6.3558   -3.1742   -0.0248 H       1  UNL11       0.4475
     33 H          -6.4619   -3.5666    2.2389 H       1  UNL11       0.0683
     34 H          -5.4206   -3.5218    4.4465 H       1  UNL11       0.0620
     35 H          -3.1118   -2.7049    4.7373 H       1  UNL11       0.0618
     36 H          -1.8872   -1.9486    2.8184 H       1  UNL11       0.0626
     37 H           1.9283   -1.2531    0.9953 H       1  UNL11       0.1550
     38 H           4.8743   -1.1301    1.0710 H       1  UNL11       0.0637
     39 H           6.6051    0.2402    2.0487 H       1  UNL11       0.0618
     40 H           6.1649    2.6064    2.6512 H       1  UNL11       0.0618
     41 H           3.9253    3.5051    2.2239 H       1  UNL11       0.0647
@<TRIPOS>BOND
     1     1     2    1
     2     1    27    1
     3     1    28    1
     4     1    29    1
     5     2     3    1
     6     2    17    1
     7     2    30    1
     8     3     4    1
     9     4     5    2
    10     4     6    1
    11     6     7    2
    12     7     8    1
    13     7    31    1
    14     8     9    2
    15     8    10   am
    16    10    11    1
    17    10    32    1
    18    11    12   ar
    19    12    13   ar
    20    12    33    1
    21    13    14   ar
    22    13    34    1
    23    14    15   ar
    24    14    35    1
    25    15    16   ar
    26    15    36    1
    27    16     6    1
    28    16    11   ar
    29    17    18    2
    30    17    19   am
    31    19    20    1
    32    19    37    1
    33    20    21   ar
    34    21    22   ar
    35    21    38    1
    36    22    23   ar
    37    22    39    1
    38    23    24   ar
    39    23    40    1
    40    24    25   ar
    41    24    41    1
    42    25    26    1
    43    25    20   ar
@<TRIPOS>MOLECULE
*****
 41 43 0 0 0
SMALL
GASTEIGER

@<TRIPOS>ATOM
      1 C           0.3730   -0.9309   -2.6516 C.3     1  UNL11      -0.0189
      2 C           0.4633   -0.9614   -1.1545 C.3     1  UNL11       0.1761
      3 O          -0.7117   -0.6003   -0.5046 O.3     1  UNL11      -0.4487
      4 C          -1.3540    0.5960   -0.6328 C.2     1  UNL11       0.3410
      5 O          -0.5869    1.5902   -0.2834 O.2     1  UNL11      -0.2449
      6 C          -2.6854    0.9012   -1.0747 C.2     1  UNL11       0.0820
      7 C          -3.1352    2.2208   -1.1272 C.2     1  UNL11       0.0674
      8 C          -4.3781    2.5548   -1.5358 C.2     1  UNL11       0.4077
      9 O          -4.7666    3.7555   -1.5763 O.2     1  UNL11      -0.2148
     10 N          -5.2357    1.5968   -1.9123 N.am    1  UNL11      -0.1444
     11 C          -4.8629    0.2872   -1.8859 C.ar    1  UNL11       0.2104
     12 C          -5.7408   -0.6880   -2.2709 C.ar    1  UNL11       0.0097
     13 C          -5.3663   -2.0174   -2.2455 C.ar    1  UNL11      -0.0555
     14 C          -4.1152   -2.3924   -1.8373 C.ar    1  UNL11      -0.0608
     15 C          -3.2276   -1.3996   -1.4475 C.ar    1  UNL11      -0.0475
     16 C          -3.5747   -0.0598   -1.4625 C.ar    1  UNL11       0.0599
     17 C           1.5988   -0.0666   -0.6954 C.2     1  UNL11       0.2579
     18 O           1.5324    0.5096    0.4129 O.2     1  UNL11      -0.2714
     19 N           2.7142    0.1057   -1.5201 N.am    1  UNL11      -0.2801
     20 C           3.8527    0.8983   -1.2451 C.ar    1  UNL11       0.0691
     21 C           3.8709    2.2433   -1.0041 C.ar    1  UNL11      -0.0377
     22 C           5.0443    2.9585   -0.7386 C.ar    1  UNL11      -0.0598
     23 C           6.2617    2.3162   -0.7092 C.ar    1  UNL11      -0.0589
     24 C           6.2682    0.9610   -0.9491 C.ar    1  UNL11      -0.0246
     25 C           5.1000    0.2761   -1.2085 C.ar    1  UNL11       0.1445
     26 F           5.1458   -1.0773   -1.4435 F       1  UNL11      -0.2035
     27 H           0.2742   -1.9439   -3.0646 H       1  UNL11       0.0270
     28 H          -0.4208   -0.2378   -3.0166 H       1  UNL11       0.0270
     29 H           1.3279   -0.5197   -3.0397 H       1  UNL11       0.0270
     30 H           0.7131   -2.0008   -0.8550 H       1  UNL11       0.0830
     31 H          -2.4306    2.9790   -0.8202 H       1  UNL11       0.0728
     32 H          -6.2144    1.8280   -2.2366 H       1  UNL11       0.4475
     33 H          -6.7323   -0.3842   -2.5939 H       1  UNL11       0.0683
     34 H          -6.0945   -2.7404   -2.5580 H       1  UNL11       0.0620
     35 H          -3.8425   -3.4280   -1.8242 H       1  UNL11       0.0618
     36 H          -2.2709   -1.7498   -1.1404 H       1  UNL11       0.0626
     37 H           2.6744   -0.4313   -2.4518 H       1  UNL11       0.1550
     38 H           2.9614    2.8131   -1.0101 H       1  UNL11       0.0637
     39 H           4.9978    4.0276   -0.5543 H       1  UNL11       0.0618
     40 H           7.1880    2.8632   -0.5028 H       1  UNL11       0.0618
     41 H           7.2185    0.4499   -0.9279 H       1  UNL11       0.0647
@<TRIPOS>BOND
     1     1     2    1
     2     1    27    1
     3     1    28    1
     4     1    29    1
     5     2     3    1
     6     2    17    1
     7     2    30    1
     8     3     4    1
     9     4     5    2
    10     4     6    1
    11     6     7    2
    12     7     8    1
    13     7    31    1
    14     8     9    2
    15     8    10   am
    16    10    11    1
    17    10    32    1
    18    11    12   ar
    19    12    13   ar
    20    12    33    1
    21    13    14   ar
    22    13    34    1
    23    14    15   ar
    24    14    35    1
    25    15    16   ar
    26    15    36    1
    27    16     6    1
    28    16    11   ar
    29    17    18    2
    30    17    19   am
    31    19    20    1
    32    19    37    1
    33    20    21   ar
    34    21    22   ar
    35    21    38    1
    36    22    23   ar
    37    22    39    1
    38    23    24   ar
    39    23    40    1
    40    24    25   ar
    41    24    41    1
    42    25    26    1
    43    25    20   ar
@<TRIPOS>MOLECULE
*****
 41 43 0 0 0
SMALL
GASTEIGER

@<TRIPOS>ATOM
      1 C           0.3730   -0.9309   -2.6516 C.3     1  UNL11      -0.0189
      2 C           0.4633   -0.9614   -1.1545 C.3     1  UNL11       0.1761
      3 O          -0.7117   -0.6003   -0.5046 O.3     1  UNL11      -0.4487
      4 C          -1.4178   -1.3894    0.3550 C.2     1  UNL11       0.3410
      5 O          -0.7045   -1.7217    1.3941 O.2     1  UNL11      -0.2449
      6 C          -2.7647   -1.8811    0.2827 C.2     1  UNL11       0.0820
      7 C          -3.2860   -2.6860    1.2961 C.2     1  UNL11       0.0674
      8 C          -4.5460   -3.1708    1.2706 C.2     1  UNL11       0.4077
      9 O          -4.9997   -3.8979    2.1978 O.2     1  UNL11      -0.2148
     10 N          -5.3507   -2.8812    0.2392 N.am    1  UNL11      -0.1444
     11 C          -4.9067   -2.1008   -0.7849 C.ar    1  UNL11       0.2104
     12 C          -5.7307   -1.8073   -1.8361 C.ar    1  UNL11       0.0097
     13 C          -5.2840   -1.0161   -2.8765 C.ar    1  UNL11      -0.0555
     14 C          -4.0135   -0.5077   -2.8839 C.ar    1  UNL11      -0.0608
     15 C          -3.1808   -0.8081   -1.8153 C.ar    1  UNL11      -0.0475
     16 C          -3.6007   -1.5979   -0.7591 C.ar    1  UNL11       0.0599
     17 C           1.5988   -0.0666   -0.6954 C.2     1  UNL11       0.2579
     18 O           1.3819    1.1389   -0.4414 O.2     1  UNL11      -0.2714
     19 N           2.8832   -0.6014   -0.5600 N.am    1  UNL11      -0.2801
     20 C           3.2746   -1.9342   -0.8253 C.ar    1  UNL11       0.0691
     21 C           2.6057   -2.8422   -1.5969 C.ar    1  UNL11      -0.0377
     22 C           3.0607   -4.1482   -1.8119 C.ar    1  UNL11      -0.0598
     23 C           4.2343   -4.5818   -1.2375 C.ar    1  UNL11      -0.0589
     24 C           4.9257   -3.6846   -0.4558 C.ar    1  UNL11      -0.0246
     25 C           4.4590   -2.4024   -0.2575 C.ar    1  UNL11       0.1445
     26 F           5.1768   -1.5341    0.5298 F       1  UNL11      -0.2035
     27 H           0.2742   -1.9439   -3.0646 H       1  UNL11       0.0270
     28 H          -0.4208   -0.2378   -3.0166 H       1  UNL11       0.0270
     29 H           1.3279   -0.5197   -3.0397 H       1  UNL11       0.0270
     30 H           0.7131   -2.0008   -0.8550 H       1  UNL11       0.0830
     31 H          -2.6234   -2.9087    2.1189 H       1  UNL11       0.0728
     32 H          -6.3411   -3.2463    0.1919 H       1  UNL11       0.4475
     33 H          -6.7378   -2.2137   -1.8245 H       1  UNL11       0.0683
     34 H          -5.9721   -0.8177   -3.6751 H       1  UNL11       0.0620
     35 H          -3.6846    0.1039   -3.6992 H       1  UNL11       0.0618
     36 H          -2.2058   -0.3860   -1.8751 H       1  UNL11       0.0626
     37 H           3.6287    0.0950   -0.2177 H       1  UNL11       0.1550
     38 H           1.6833   -2.5781   -2.0779 H       1  UNL11       0.0637
     39 H           2.4864   -4.8268   -2.4354 H       1  UNL11       0.0618
     40 H           4.6025   -5.6011   -1.3970 H       1  UNL11       0.0618
     41 H           5.8468   -4.0166   -0.0017 H       1  UNL11       0.0647
@<TRIPOS>BOND
     1     1     2    1
     2     1    27    1
     3     1    28    1
     4     1    29    1
     5     2     3    1
     6     2    17    1
     7     2    30    1
     8     3     4    1
     9     4     5    2
    10     4     6    1
    11     6     7    2
    12     7     8    1
    13     7    31    1
    14     8     9    2
    15     8    10   am
    16    10    11    1
    17    10    32    1
    18    11    12   ar
    19    12    13   ar
    20    12    33    1
    21    13    14   ar
    22    13    34    1
    23    14    15   ar
    24    14    35    1
    25    15    16   ar
    26    15    36    1
    27    16     6    1
    28    16    11   ar
    29    17    18    2
    30    17    19   am
    31    19    20    1
    32    19    37    1
    33    20    21   ar
    34    21    22   ar
    35    21    38    1
    36    22    23   ar
    37    22    39    1
    38    23    24   ar
    39    23    40    1
    40    24    25   ar
    41    24    41    1
    42    25    26    1
    43    25    20   ar
@<TRIPOS>MOLECULE
*****
 41 43 0 0 0
SMALL
GASTEIGER

@<TRIPOS>ATOM
      1 C           0.3730   -0.9309   -2.6516 C.3     1  UNL11      -0.0189
      2 C           0.4633   -0.9614   -1.1545 C.3     1  UNL11       0.1761
      3 O          -0.7117   -0.6003   -0.5046 O.3     1  UNL11      -0.4487
      4 C          -1.3540    0.5960   -0.6328 C.2     1  UNL11       0.3410
      5 O          -1.1609    1.1183   -1.8114 O.2     1  UNL11      -0.2449
      6 C          -2.1702    1.3248    0.2965 C.2     1  UNL11       0.0820
      7 C          -2.3972    2.6910    0.1284 C.2     1  UNL11       0.0674
      8 C          -3.1572    3.4166    0.9765 C.2     1  UNL11       0.4077
      9 O          -3.3509    4.6528    0.8071 O.2     1  UNL11      -0.2148
     10 N          -3.7293    2.8231    2.0326 N.am    1  UNL11      -0.1444
     11 C          -3.5496    1.4919    2.2576 C.ar    1  UNL11       0.2104
     12 C          -4.1350    0.8893    3.3366 C.ar    1  UNL11       0.0097
     13 C          -3.9551   -0.4606    3.5680 C.ar    1  UNL11      -0.0555
     14 C          -3.1916   -1.2267    2.7296 C.ar    1  UNL11      -0.0608
     15 C          -2.5996   -0.6111    1.6360 C.ar    1  UNL11      -0.0475
     16 C          -2.7620    0.7391    1.3789 C.ar    1  UNL11       0.0599
     17 C           1.5988   -0.0666   -0.6954 C.2     1  UNL11       0.2579
     18 O           2.2864    0.5531   -1.5368 O.2     1  UNL11      -0.2714
     19 N           1.8666    0.0571    0.6709 N.am    1  UNL11      -0.2801
     20 C           1.1853   -0.5922    1.7266 C.ar    1  UNL11       0.0691
     21 C           1.4993   -1.8030    2.2768 C.ar    1  UNL11      -0.0377
     22 C           0.7724   -2.3805    3.3242 C.ar    1  UNL11      -0.0598
     23 C          -0.3193   -1.7324    3.8566 C.ar    1  UNL11      -0.0589
     24 C          -0.6549   -0.5110    3.3183 C.ar    1  UNL11      -0.0246
     25 C           0.0755    0.0396    2.2865 C.ar    1  UNL11       0.1445
     26 F          -0.2897    1.2616    1.7744 F       1  UNL11      -0.2035
     27 H           0.2742   -1.9439   -3.0646 H       1  UNL11       0.0270
     28 H          -0.4208   -0.2378   -3.0166 H       1  UNL11       0.0270
     29 H           1.3279   -0.5197   -3.0397 H       1  UNL11       0.0270
     30 H           0.7131   -2.0008   -0.8550 H       1  UNL11       0.0830
     31 H          -1.9285    3.1522   -0.7279 H       1  UNL11       0.0728
     32 H          -4.3289    3.3651    2.7131 H       1  UNL11       0.4475
     33 H          -4.7397    1.5025    3.9983 H       1  UNL11       0.0683
     34 H          -4.4371   -0.8813    4.4289 H       1  UNL11       0.0620
     35 H          -3.0634   -2.2718    2.9250 H       1  UNL11       0.0618
     36 H          -2.0183   -1.2554    1.0201 H       1  UNL11       0.0626
     37 H           2.6787    0.7199    0.9140 H       1  UNL11       0.1550
     38 H           2.3368   -2.3683    1.9151 H       1  UNL11       0.0637
     39 H           1.0688   -3.3464    3.7219 H       1  UNL11       0.0618
     40 H          -0.8975   -2.1725    4.6763 H       1  UNL11       0.0618
     41 H          -1.5095    0.0037    3.7300 H       1  UNL11       0.0647
@<TRIPOS>BOND
     1     1     2    1
     2     1    27    1
     3     1    28    1
     4     1    29    1
     5     2     3    1
     6     2    17    1
     7     2    30    1
     8     3     4    1
     9     4     5    2
    10     4     6    1
    11     6     7    2
    12     7     8    1
    13     7    31    1
    14     8     9    2
    15     8    10   am
    16    10    11    1
    17    10    32    1
    18    11    12   ar
    19    12    13   ar
    20    12    33    1
    21    13    14   ar
    22    13    34    1
    23    14    15   ar
    24    14    35    1
    25    15    16   ar
    26    15    36    1
    27    16     6    1
    28    16    11   ar
    29    17    18    2
    30    17    19   am
    31    19    20    1
    32    19    37    1
    33    20    21   ar
    34    21    22   ar
    35    21    38    1
    36    22    23   ar
    37    22    39    1
    38    23    24   ar
    39    23    40    1
    40    24    25   ar
    41    24    41    1
    42    25    26    1
    43    25    20   ar
@<TRIPOS>MOLECULE
*****
 41 43 0 0 0
SMALL
GASTEIGER

@<TRIPOS>ATOM
      1 C           0.3730   -0.9309   -2.6516 C.3     1  UNL11      -0.0189
      2 C           0.4633   -0.9614   -1.1545 C.3     1  UNL11       0.1761
      3 O          -0.7117   -0.6003   -0.5046 O.3     1  UNL11      -0.4487
      4 C          -1.3540    0.5960   -0.6328 C.2     1  UNL11       0.3410
      5 O          -1.7288    0.8078   -1.8632 O.2     1  UNL11      -0.2449
      6 C          -1.6605    1.6034    0.3430 C.2     1  UNL11       0.0820
      7 C          -2.6617    2.5457    0.1058 C.2     1  UNL11       0.0674
      8 C          -2.9841    3.5105    0.9939 C.2     1  UNL11       0.4077
      9 O          -3.8937    4.3545    0.7607 O.2     1  UNL11      -0.2148
     10 N          -2.3296    3.5881    2.1603 N.am    1  UNL11      -0.1444
     11 C          -1.3405    2.7003    2.4574 C.ar    1  UNL11       0.2104
     12 C          -0.6745    2.7825    3.6490 C.ar    1  UNL11       0.0097
     13 C           0.3293    1.8838    3.9538 C.ar    1  UNL11      -0.0555
     14 C           0.6824    0.8935    3.0779 C.ar    1  UNL11      -0.0608
     15 C           0.0041    0.8138    1.8701 C.ar    1  UNL11      -0.0475
     16 C          -1.0057    1.6999    1.5374 C.ar    1  UNL11       0.0599
     17 C           1.5988   -0.0666   -0.6954 C.2     1  UNL11       0.2579
     18 O           1.3819    1.1389   -0.4414 O.2     1  UNL11      -0.2714
     19 N           2.8832   -0.6014   -0.5600 N.am    1  UNL11      -0.2801
     20 C           3.2746   -1.9342   -0.8253 C.ar    1  UNL11       0.0691
     21 C           3.7282   -2.4292   -2.0155 C.ar    1  UNL11      -0.0377
     22 C           4.0976   -3.7668   -2.1984 C.ar    1  UNL11      -0.0598
     23 C           4.0160   -4.6622   -1.1559 C.ar    1  UNL11      -0.0589
     24 C           3.5617   -4.1864    0.0530 C.ar    1  UNL11      -0.0246
     25 C           3.2031   -2.8645    0.2110 C.ar    1  UNL11       0.1445
     26 F           2.7538   -2.4256    1.4334 F       1  UNL11      -0.2035
     27 H           0.2742   -1.9439   -3.0646 H       1  UNL11       0.0270
     28 H          -0.4208   -0.2378   -3.0166 H       1  UNL11       0.0270
     29 H           1.3279   -0.5197   -3.0397 H       1  UNL11       0.0270
     30 H           0.7131   -2.0008   -0.8550 H       1  UNL11       0.0830
     31 H          -3.1781    2.4677   -0.8390 H       1  UNL11       0.0728
     32 H          -2.5600    4.3321    2.8744 H       1  UNL11       0.4475
     33 H          -0.9593    3.5706    4.3399 H       1  UNL11       0.0683
     34 H           0.8182    1.9945    4.9021 H       1  UNL11       0.0620
     35 H           1.4632    0.2057    3.3315 H       1  UNL11       0.0618
     36 H           0.3209    0.0251    1.2299 H       1  UNL11       0.0626
     37 H           3.6287    0.0950   -0.2177 H       1  UNL11       0.1550
     38 H           3.8194   -1.7922   -2.8745 H       1  UNL11       0.0637
     39 H           4.4514   -4.1038   -3.1681 H       1  UNL11       0.0618
     40 H           4.3017   -5.7119   -1.2846 H       1  UNL11       0.0618
     41 H           3.4947   -4.8821    0.8755 H       1  UNL11       0.0647
@<TRIPOS>BOND
     1     1     2    1
     2     1    27    1
     3     1    28    1
     4     1    29    1
     5     2     3    1
     6     2    17    1
     7     2    30    1
     8     3     4    1
     9     4     5    2
    10     4     6    1
    11     6     7    2
    12     7     8    1
    13     7    31    1
    14     8     9    2
    15     8    10   am
    16    10    11    1
    17    10    32    1
    18    11    12   ar
    19    12    13   ar
    20    12    33    1
    21    13    14   ar
    22    13    34    1
    23    14    15   ar
    24    14    35    1
    25    15    16   ar
    26    15    36    1
    27    16     6    1
    28    16    11   ar
    29    17    18    2
    30    17    19   am
    31    19    20    1
    32    19    37    1
    33    20    21   ar
    34    21    22   ar
    35    21    38    1
    36    22    23   ar
    37    22    39    1
    38    23    24   ar
    39    23    40    1
    40    24    25   ar
    41    24    41    1
    42    25    26    1
    43    25    20   ar
@<TRIPOS>MOLECULE
*****
 41 43 0 0 0
SMALL
GASTEIGER

@<TRIPOS>ATOM
      1 C           0.3730   -0.9309   -2.6516 C.3     1  UNL11      -0.0189
      2 C           0.4633   -0.9614   -1.1545 C.3     1  UNL11       0.1761
      3 O          -0.7117   -0.6003   -0.5046 O.3     1  UNL11      -0.4487
      4 C          -1.7865   -1.4141   -0.2979 C.2     1  UNL11       0.3410
      5 O          -1.4677   -2.4536    0.4210 O.2     1  UNL11      -0.2449
      6 C          -3.1484   -1.2958   -0.7363 C.2     1  UNL11       0.0820
      7 C          -3.9873   -2.4101   -0.7683 C.2     1  UNL11       0.0674
      8 C          -5.2740   -2.3463   -1.1729 C.2     1  UNL11       0.4077
      9 O          -6.0176   -3.3665   -1.1947 O.2     1  UNL11      -0.2148
     10 N          -5.7918   -1.1746   -1.5654 N.am    1  UNL11      -0.1444
     11 C          -5.0292   -0.0462   -1.5595 C.ar    1  UNL11       0.2104
     12 C          -5.5610    1.1480   -1.9609 C.ar    1  UNL11       0.0097
     13 C          -4.7906    2.2947   -1.9563 C.ar    1  UNL11      -0.0555
     14 C          -3.4833    2.2672   -1.5527 C.ar    1  UNL11      -0.0608
     15 C          -2.9478    1.0533   -1.1463 C.ar    1  UNL11      -0.0475
     16 C          -3.6953   -0.1116   -1.1403 C.ar    1  UNL11       0.0599
     17 C           1.5988   -0.0666   -0.6954 C.2     1  UNL11       0.2579
     18 O           2.5498   -0.5486   -0.0412 O.2     1  UNL11      -0.2714
     19 N           1.5707    1.2951   -1.0101 N.am    1  UNL11      -0.2801
     20 C           0.5578    1.9752   -1.7254 C.ar    1  UNL11       0.0691
     21 C          -0.5487    2.5783   -1.1971 C.ar    1  UNL11      -0.0377
     22 C          -1.5094    3.2341   -1.9755 C.ar    1  UNL11      -0.0598
     23 C          -1.3730    3.2991   -3.3439 C.ar    1  UNL11      -0.0589
     24 C          -0.2660    2.6986   -3.8989 C.ar    1  UNL11      -0.0246
     25 C           0.6682    2.0578   -3.1130 C.ar    1  UNL11       0.1445
     26 F           1.7612    1.4694   -3.7029 F       1  UNL11      -0.2035
     27 H           0.2742   -1.9439   -3.0646 H       1  UNL11       0.0270
     28 H          -0.4208   -0.2378   -3.0166 H       1  UNL11       0.0270
     29 H           1.3279   -0.5197   -3.0397 H       1  UNL11       0.0270
     30 H           0.7131   -2.0008   -0.8550 H       1  UNL11       0.0830
     31 H          -3.5530   -3.3453   -0.4485 H       1  UNL11       0.0728
     32 H          -6.7951   -1.0941   -1.8870 H       1  UNL11       0.4475
     33 H          -6.5990    1.1635   -2.2800 H       1  UNL11       0.0683
     34 H          -5.2584    3.2037   -2.2809 H       1  UNL11       0.0620
     35 H          -2.9014    3.1662   -1.5558 H       1  UNL11       0.0618
     36 H          -1.9284    1.0925   -0.8438 H       1  UNL11       0.0626
     37 H           2.4185    1.8574   -0.6595 H       1  UNL11       0.1550
     38 H          -0.7242    2.5697   -0.1383 H       1  UNL11       0.0637
     39 H          -2.3694    3.6959   -1.5000 H       1  UNL11       0.0618
     40 H          -2.1170    3.8090   -3.9656 H       1  UNL11       0.0618
     41 H          -0.1517    2.7450   -4.9711 H       1  UNL11       0.0647
@<TRIPOS>BOND
     1     1     2    1
     2     1    27    1
     3     1    28    1
     4     1    29    1
     5     2     3    1
     6     2    17    1
     7     2    30    1
     8     3     4    1
     9     4     5    2
    10     4     6    1
    11     6     7    2
    12     7     8    1
    13     7    31    1
    14     8     9    2
    15     8    10   am
    16    10    11    1
    17    10    32    1
    18    11    12   ar
    19    12    13   ar
    20    12    33    1
    21    13    14   ar
    22    13    34    1
    23    14    15   ar
    24    14    35    1
    25    15    16   ar
    26    15    36    1
    27    16     6    1
    28    16    11   ar
    29    17    18    2
    30    17    19   am
    31    19    20    1
    32    19    37    1
    33    20    21   ar
    34    21    22   ar
    35    21    38    1
    36    22    23   ar
    37    22    39    1
    38    23    24   ar
    39    23    40    1
    40    24    25   ar
    41    24    41    1
    42    25    26    1
    43    25    20   ar
@<TRIPOS>MOLECULE
*****
 41 43 0 0 0
SMALL
GASTEIGER

@<TRIPOS>ATOM
      1 C           0.3730   -0.9309   -2.6516 C.3     1  UNL11      -0.0189
      2 C           0.4633   -0.9614   -1.1545 C.3     1  UNL11       0.1761
      3 O          -0.7117   -0.6003   -0.5046 O.3     1  UNL11      -0.4487
      4 C          -1.1419    0.6768   -0.2942 C.2     1  UNL11       0.3410
      5 O          -0.2785    1.3636    0.3999 O.2     1  UNL11      -0.2449
      6 C          -2.3474    1.3385   -0.7065 C.2     1  UNL11       0.0820
      7 C          -3.3211    0.6576   -1.4377 C.2     1  UNL11       0.0674
      8 C          -4.4693    1.2388   -1.8465 C.2     1  UNL11       0.4077
      9 O          -5.3388    0.6054   -2.5076 O.2     1  UNL11      -0.2148
     10 N          -4.7082    2.5234   -1.5503 N.am    1  UNL11      -0.1444
     11 C          -3.8005    3.2482   -0.8393 C.ar    1  UNL11       0.2104
     12 C          -4.0476    4.5592   -0.5387 C.ar    1  UNL11       0.0097
     13 C          -3.1294    5.2976    0.1823 C.ar    1  UNL11      -0.0555
     14 C          -1.9555    4.7413    0.6126 C.ar    1  UNL11      -0.0608
     15 C          -1.7089    3.4109    0.3054 C.ar    1  UNL11      -0.0475
     16 C          -2.6100    2.6465   -0.4151 C.ar    1  UNL11       0.0599
     17 C           1.5988   -0.0666   -0.6954 C.2     1  UNL11       0.2579
     18 O           2.5498   -0.5486   -0.0412 O.2     1  UNL11      -0.2714
     19 N           1.5707    1.2951   -1.0101 N.am    1  UNL11      -0.2801
     20 C           0.5578    1.9752   -1.7254 C.ar    1  UNL11       0.0691
     21 C          -0.5487    2.5783   -1.1971 C.ar    1  UNL11      -0.0377
     22 C          -1.5094    3.2341   -1.9755 C.ar    1  UNL11      -0.0598
     23 C          -1.3730    3.2991   -3.3439 C.ar    1  UNL11      -0.0589
     24 C          -0.2660    2.6986   -3.8989 C.ar    1  UNL11      -0.0246
     25 C           0.6682    2.0578   -3.1130 C.ar    1  UNL11       0.1445
     26 F           1.7612    1.4694   -3.7029 F       1  UNL11      -0.2035
     27 H           0.2742   -1.9439   -3.0646 H       1  UNL11       0.0270
     28 H          -0.4208   -0.2378   -3.0166 H       1  UNL11       0.0270
     29 H           1.3279   -0.5197   -3.0397 H       1  UNL11       0.0270
     30 H           0.7131   -2.0008   -0.8550 H       1  UNL11       0.0830
     31 H          -3.1115   -0.3764   -1.6670 H       1  UNL11       0.0728
     32 H          -5.5975    3.0047   -1.8567 H       1  UNL11       0.4475
     33 H          -4.9809    4.9950   -0.8830 H       1  UNL11       0.0683
     34 H          -3.3742    6.3211    0.3897 H       1  UNL11       0.0620
     35 H          -1.2554    5.3293    1.1705 H       1  UNL11       0.0618
     36 H          -0.7817    3.0327    0.6654 H       1  UNL11       0.0626
     37 H           2.4185    1.8574   -0.6595 H       1  UNL11       0.1550
     38 H          -0.7242    2.5697   -0.1383 H       1  UNL11       0.0637
     39 H          -2.3694    3.6959   -1.5000 H       1  UNL11       0.0618
     40 H          -2.1170    3.8090   -3.9656 H       1  UNL11       0.0618
     41 H          -0.1517    2.7450   -4.9711 H       1  UNL11       0.0647
@<TRIPOS>BOND
     1     1     2    1
     2     1    27    1
     3     1    28    1
     4     1    29    1
     5     2     3    1
     6     2    17    1
     7     2    30    1
     8     3     4    1
     9     4     5    2
    10     4     6    1
    11     6     7    2
    12     7     8    1
    13     7    31    1
    14     8     9    2
    15     8    10   am
    16    10    11    1
    17    10    32    1
    18    11    12   ar
    19    12    13   ar
    20    12    33    1
    21    13    14   ar
    22    13    34    1
    23    14    15   ar
    24    14    35    1
    25    15    16   ar
    26    15    36    1
    27    16     6    1
    28    16    11   ar
    29    17    18    2
    30    17    19   am
    31    19    20    1
    32    19    37    1
    33    20    21   ar
    34    21    22   ar
    35    21    38    1
    36    22    23   ar
    37    22    39    1
    38    23    24   ar
    39    23    40    1
    40    24    25   ar
    41    24    41    1
    42    25    26    1
    43    25    20   ar
@<TRIPOS>MOLECULE
*****
 41 43 0 0 0
SMALL
GASTEIGER

@<TRIPOS>ATOM
      1 C           0.3730   -0.9309   -2.6516 C.3     1  UNL11      -0.0189
      2 C           0.4633   -0.9614   -1.1545 C.3     1  UNL11       0.1761
      3 O          -0.7117   -0.6003   -0.5046 O.3     1  UNL11      -0.4487
      4 C          -1.4178   -1.3894    0.3550 C.2     1  UNL11       0.3410
      5 O          -0.6401   -2.2232    0.9867 O.2     1  UNL11      -0.2449
      6 C          -2.8225   -1.4310    0.6484 C.2     1  UNL11       0.0820
      7 C          -3.2882   -2.0100    1.8292 C.2     1  UNL11       0.0674
      8 C          -4.5992   -2.0717    2.1469 C.2     1  UNL11       0.4077
      9 O          -5.0010   -2.6000    3.2210 O.2     1  UNL11      -0.2148
     10 N          -5.5124   -1.5623    1.3093 N.am    1  UNL11      -0.1444
     11 C          -5.1280   -0.9822    0.1386 C.ar    1  UNL11       0.2104
     12 C          -6.0628   -0.4634   -0.7140 C.ar    1  UNL11       0.0097
     13 C          -5.6767    0.1258   -1.9023 C.ar    1  UNL11      -0.0555
     14 C          -4.3573    0.2058   -2.2565 C.ar    1  UNL11      -0.0608
     15 C          -3.4122   -0.3220   -1.3884 C.ar    1  UNL11      -0.0475
     16 C          -3.7692   -0.9179   -0.1914 C.ar    1  UNL11       0.0599
     17 C           1.5988   -0.0666   -0.6954 C.2     1  UNL11       0.2579
     18 O           1.3819    1.1389   -0.4414 O.2     1  UNL11      -0.2714
     19 N           2.8832   -0.6014   -0.5600 N.am    1  UNL11      -0.2801
     20 C           3.2746   -1.9342   -0.8253 C.ar    1  UNL11       0.0691
     21 C           3.8235   -2.8150    0.0637 C.ar    1  UNL11      -0.0377
     22 C           4.1855   -4.1232   -0.2779 C.ar    1  UNL11      -0.0598
     23 C           3.9972   -4.5872   -1.5603 C.ar    1  UNL11      -0.0589
     24 C           3.4456   -3.7176   -2.4735 C.ar    1  UNL11      -0.0246
     25 C           3.0963   -2.4329   -2.1152 C.ar    1  UNL11       0.1445
     26 F           2.5477   -1.5928   -3.0545 F       1  UNL11      -0.2035
     27 H           0.2742   -1.9439   -3.0646 H       1  UNL11       0.0270
     28 H          -0.4208   -0.2378   -3.0166 H       1  UNL11       0.0270
     29 H           1.3279   -0.5197   -3.0397 H       1  UNL11       0.0270
     30 H           0.7131   -2.0008   -0.8550 H       1  UNL11       0.0830
     31 H          -2.5381   -2.4151    2.4918 H       1  UNL11       0.0728
     32 H          -6.5449   -1.5961    1.5311 H       1  UNL11       0.4475
     33 H          -7.1083   -0.5299   -0.4274 H       1  UNL11       0.0683
     34 H          -6.4514    0.5162   -2.5331 H       1  UNL11       0.0620
     35 H          -4.0767    0.6662   -3.1818 H       1  UNL11       0.0618
     36 H          -2.4037   -0.2312   -1.7157 H       1  UNL11       0.0626
     37 H           3.6287    0.0950   -0.2177 H       1  UNL11       0.1550
     38 H           4.0008   -2.5265    1.0821 H       1  UNL11       0.0637
     39 H           4.6182   -4.7793    0.4713 H       1  UNL11       0.0618
     40 H           4.2758   -5.6085   -1.8419 H       1  UNL11       0.0618
     41 H           3.2947   -4.0736   -3.4811 H       1  UNL11       0.0647
@<TRIPOS>BOND
     1     1     2    1
     2     1    27    1
     3     1    28    1
     4     1    29    1
     5     2     3    1
     6     2    17    1
     7     2    30    1
     8     3     4    1
     9     4     5    2
    10     4     6    1
    11     6     7    2
    12     7     8    1
    13     7    31    1
    14     8     9    2
    15     8    10   am
    16    10    11    1
    17    10    32    1
    18    11    12   ar
    19    12    13   ar
    20    12    33    1
    21    13    14   ar
    22    13    34    1
    23    14    15   ar
    24    14    35    1
    25    15    16   ar
    26    15    36    1
    27    16     6    1
    28    16    11   ar
    29    17    18    2
    30    17    19   am
    31    19    20    1
    32    19    37    1
    33    20    21   ar
    34    21    22   ar
    35    21    38    1
    36    22    23   ar
    37    22    39    1
    38    23    24   ar
    39    23    40    1
    40    24    25   ar
    41    24    41    1
    42    25    26    1
    43    25    20   ar
@<TRIPOS>MOLECULE
*****
 41 43 0 0 0
SMALL
GASTEIGER

@<TRIPOS>ATOM
      1 C           0.3730   -0.9309   -2.6516 C.3     1  UNL11      -0.0189
      2 C           0.4633   -0.9614   -1.1545 C.3     1  UNL11       0.1761
      3 O          -0.7117   -0.6003   -0.5046 O.3     1  UNL11      -0.4487
      4 C          -1.9095   -1.2432   -0.6152 C.2     1  UNL11       0.3410
      5 O          -2.3295   -1.2624   -1.8490 O.2     1  UNL11      -0.2449
      6 C          -2.7315   -1.8694    0.3814 C.2     1  UNL11       0.0820
      7 C          -4.0849   -2.1094    0.1425 C.2     1  UNL11       0.0674
      8 C          -4.8957   -2.6952    1.0496 C.2     1  UNL11       0.4077
      9 O          -6.1185   -2.9041    0.8144 O.2     1  UNL11      -0.2148
     10 N          -4.4042   -3.0715    2.2378 N.am    1  UNL11      -0.1444
     11 C          -3.0916   -2.8673    2.5380 C.ar    1  UNL11       0.2104
     12 C          -2.5933   -3.2526    3.7518 C.ar    1  UNL11       0.0097
     13 C          -1.2625   -3.0473    4.0599 C.ar    1  UNL11      -0.0555
     14 C          -0.4121   -2.4567    3.1651 C.ar    1  UNL11      -0.0608
     15 C          -0.9219   -2.0673    1.9347 C.ar    1  UNL11      -0.0475
     16 C          -2.2505   -2.2602    1.5982 C.ar    1  UNL11       0.0599
     17 C           1.5988   -0.0666   -0.6954 C.2     1  UNL11       0.2579
     18 O           2.5498   -0.5486   -0.0412 O.2     1  UNL11      -0.2714
     19 N           1.5707    1.2951   -1.0101 N.am    1  UNL11      -0.2801
     20 C           0.5578    1.9752   -1.7254 C.ar    1  UNL11       0.0691
     21 C           0.5035    2.1678   -3.0772 C.ar    1  UNL11      -0.0377
     22 C          -0.5376    2.8548   -3.7122 C.ar    1  UNL11      -0.0598
     23 C          -1.5779    3.3787   -2.9782 C.ar    1  UNL11      -0.0589
     24 C          -1.5447    3.1972   -1.6143 C.ar    1  UNL11      -0.0246
     25 C          -0.5091    2.5168   -1.0095 C.ar    1  UNL11       0.1445
     26 F          -0.5101    2.3552    0.3554 F       1  UNL11      -0.2035
     27 H           0.2742   -1.9439   -3.0646 H       1  UNL11       0.0270
     28 H          -0.4208   -0.2378   -3.0166 H       1  UNL11       0.0270
     29 H           1.3279   -0.5197   -3.0397 H       1  UNL11       0.0270
     30 H           0.7131   -2.0008   -0.8550 H       1  UNL11       0.0830
     31 H          -4.4631   -1.7997   -0.8201 H       1  UNL11       0.0728
     32 H          -5.0146   -3.5320    2.9672 H       1  UNL11       0.4475
     33 H          -3.2732   -3.7207    4.4577 H       1  UNL11       0.0683
     34 H          -0.9252   -3.3688    5.0260 H       1  UNL11       0.0620
     35 H           0.6167   -2.3057    3.4214 H       1  UNL11       0.0618
     36 H          -0.2154   -1.6143    1.2805 H       1  UNL11       0.0626
     37 H           2.4185    1.8574   -0.6595 H       1  UNL11       0.1550
     38 H           1.2781    1.7886   -3.7160 H       1  UNL11       0.0637
     39 H          -0.5277    2.9773   -4.7910 H       1  UNL11       0.0618
     40 H          -2.3992    3.9187   -3.4617 H       1  UNL11       0.0618
     41 H          -2.3565    3.6049   -1.0316 H       1  UNL11       0.0647
@<TRIPOS>BOND
     1     1     2    1
     2     1    27    1
     3     1    28    1
     4     1    29    1
     5     2     3    1
     6     2    17    1
     7     2    30    1
     8     3     4    1
     9     4     5    2
    10     4     6    1
    11     6     7    2
    12     7     8    1
    13     7    31    1
    14     8     9    2
    15     8    10   am
    16    10    11    1
    17    10    32    1
    18    11    12   ar
    19    12    13   ar
    20    12    33    1
    21    13    14   ar
    22    13    34    1
    23    14    15   ar
    24    14    35    1
    25    15    16   ar
    26    15    36    1
    27    16     6    1
    28    16    11   ar
    29    17    18    2
    30    17    19   am
    31    19    20    1
    32    19    37    1
    33    20    21   ar
    34    21    22   ar
    35    21    38    1
    36    22    23   ar
    37    22    39    1
    38    23    24   ar
    39    23    40    1
    40    24    25   ar
    41    24    41    1
    42    25    26    1
    43    25    20   ar
@<TRIPOS>MOLECULE
*****
 41 43 0 0 0
SMALL
GASTEIGER

@<TRIPOS>ATOM
      1 C           0.3730   -0.9309   -2.6516 C.3     1  UNL11      -0.0189
      2 C           0.4633   -0.9614   -1.1545 C.3     1  UNL11       0.1761
      3 O          -0.7117   -0.6003   -0.5046 O.3     1  UNL11      -0.4487
      4 C          -1.1419    0.6768   -0.2942 C.2     1  UNL11       0.3410
      5 O          -0.2785    1.3636    0.3999 O.2     1  UNL11      -0.2449
      6 C          -2.3474    1.3385   -0.7065 C.2     1  UNL11       0.0820
      7 C          -2.4189    2.7312   -0.7474 C.2     1  UNL11       0.0674
      8 C          -3.5307    3.3962   -1.1283 C.2     1  UNL11       0.4077
      9 O          -3.5757    4.6577   -1.1587 O.2     1  UNL11      -0.2148
     10 N          -4.6257    2.7129   -1.4873 N.am    1  UNL11      -0.1444
     11 C          -4.6260    1.3511   -1.4708 C.ar    1  UNL11       0.2104
     12 C          -5.7455    0.6568   -1.8378 C.ar    1  UNL11       0.0097
     13 C          -5.7496   -0.7245   -1.8224 C.ar    1  UNL11      -0.0555
     14 C          -4.6411   -1.4311   -1.4421 C.ar    1  UNL11      -0.0608
     15 C          -3.5074   -0.7227   -1.0704 C.ar    1  UNL11      -0.0475
     16 C          -3.4739    0.6610   -1.0760 C.ar    1  UNL11       0.0599
     17 C           1.5988   -0.0666   -0.6954 C.2     1  UNL11       0.2579
     18 O           2.5498   -0.5486   -0.0412 O.2     1  UNL11      -0.2714
     19 N           1.5707    1.2951   -1.0101 N.am    1  UNL11      -0.2801
     20 C           2.5428    2.2617   -0.6628 C.ar    1  UNL11       0.0691
     21 C           3.6376    2.6180   -1.3989 C.ar    1  UNL11      -0.0377
     22 C           4.5571    3.5884   -0.9844 C.ar    1  UNL11      -0.0598
     23 C           4.3897    4.2408    0.2163 C.ar    1  UNL11      -0.0589
     24 C           3.2939    3.8985    0.9753 C.ar    1  UNL11      -0.0246
     25 C           2.4004    2.9395    0.5475 C.ar    1  UNL11       0.1445
     26 F           1.3173    2.6239    1.3326 F       1  UNL11      -0.2035
     27 H           0.2742   -1.9439   -3.0646 H       1  UNL11       0.0270
     28 H          -0.4208   -0.2378   -3.0166 H       1  UNL11       0.0270
     29 H           1.3279   -0.5197   -3.0397 H       1  UNL11       0.0270
     30 H           0.7131   -2.0008   -0.8550 H       1  UNL11       0.0830
     31 H          -1.5272    3.2649   -0.4548 H       1  UNL11       0.0728
     32 H          -5.5100    3.2059   -1.7898 H       1  UNL11       0.4475
     33 H          -6.6220    1.2232   -2.1386 H       1  UNL11       0.0683
     34 H          -6.6544   -1.2178   -2.1198 H       1  UNL11       0.0620
     35 H          -4.6628   -2.5019   -1.4363 H       1  UNL11       0.0618
     36 H          -2.6773   -1.3240   -0.7848 H       1  UNL11       0.0626
     37 H           0.7105    1.6107   -1.5743 H       1  UNL11       0.1550
     38 H           3.8355    2.1536   -2.3460 H       1  UNL11       0.0637
     39 H           5.4096    3.8306   -1.6117 H       1  UNL11       0.0618
     40 H           5.1014    5.0023    0.5534 H       1  UNL11       0.0618
     41 H           3.1554    4.4053    1.9181 H       1  UNL11       0.0647
@<TRIPOS>BOND
     1     1     2    1
     2     1    27    1
     3     1    28    1
     4     1    29    1
     5     2     3    1
     6     2    17    1
     7     2    30    1
     8     3     4    1
     9     4     5    2
    10     4     6    1
    11     6     7    2
    12     7     8    1
    13     7    31    1
    14     8     9    2
    15     8    10   am
    16    10    11    1
    17    10    32    1
    18    11    12   ar
    19    12    13   ar
    20    12    33    1
    21    13    14   ar
    22    13    34    1
    23    14    15   ar
    24    14    35    1
    25    15    16   ar
    26    15    36    1
    27    16     6    1
    28    16    11   ar
    29    17    18    2
    30    17    19   am
    31    19    20    1
    32    19    37    1
    33    20    21   ar
    34    21    22   ar
    35    21    38    1
    36    22    23   ar
    37    22    39    1
    38    23    24   ar
    39    23    40    1
    40    24    25   ar
    41    24    41    1
    42    25    26    1
    43    25    20   ar
@<TRIPOS>MOLECULE
*****
 41 43 0 0 0
SMALL
GASTEIGER

@<TRIPOS>ATOM
      1 C           0.3730   -0.9309   -2.6516 C.3     1  UNL11      -0.0189
      2 C           0.4633   -0.9614   -1.1545 C.3     1  UNL11       0.1761
      3 O          -0.7117   -0.6003   -0.5046 O.3     1  UNL11      -0.4487
      4 C          -1.3540    0.5960   -0.6328 C.2     1  UNL11       0.3410
      5 O          -0.5189    1.5607   -0.8995 O.2     1  UNL11      -0.2449
      6 C          -2.7464    0.9277   -0.5218 C.2     1  UNL11       0.0820
      7 C          -3.1833    2.2411   -0.6966 C.2     1  UNL11       0.0674
      8 C          -4.4818    2.5993   -0.6015 C.2     1  UNL11       0.4077
      9 O          -4.8577    3.7938   -0.7632 O.2     1  UNL11      -0.2148
     10 N          -5.4104    1.6728   -0.3286 N.am    1  UNL11      -0.1444
     11 C          -5.0541    0.3711   -0.1460 C.ar    1  UNL11       0.2104
     12 C          -6.0044   -0.5719    0.1325 C.ar    1  UNL11       0.0097
     13 C          -5.6469   -1.8932    0.3183 C.ar    1  UNL11      -0.0555
     14 C          -4.3408   -2.2920    0.2294 C.ar    1  UNL11      -0.0608
     15 C          -3.3798   -1.3319   -0.0533 C.ar    1  UNL11      -0.0475
     16 C          -3.7083   -0.0010   -0.2444 C.ar    1  UNL11       0.0599
     17 C           1.5988   -0.0666   -0.6954 C.2     1  UNL11       0.2579
     18 O           1.8564    0.0415    0.5239 O.2     1  UNL11      -0.2714
     19 N           2.3501    0.6318   -1.6450 N.am    1  UNL11      -0.2801
     20 C           3.4359    1.5010   -1.3889 C.ar    1  UNL11       0.0691
     21 C           4.7566    1.1572   -1.3194 C.ar    1  UNL11      -0.0377
     22 C           5.7763    2.0804   -1.0606 C.ar    1  UNL11      -0.0598
     23 C           5.4798    3.4098   -0.8600 C.ar    1  UNL11      -0.0589
     24 C           4.1558    3.7799   -0.9253 C.ar    1  UNL11      -0.0246
     25 C           3.1673    2.8535   -1.1817 C.ar    1  UNL11       0.1445
     26 F           1.8557    3.2604   -1.2395 F       1  UNL11      -0.2035
     27 H           0.2742   -1.9439   -3.0646 H       1  UNL11       0.0270
     28 H          -0.4208   -0.2378   -3.0166 H       1  UNL11       0.0270
     29 H           1.3279   -0.5197   -3.0397 H       1  UNL11       0.0270
     30 H           0.7131   -2.0008   -0.8550 H       1  UNL11       0.0830
     31 H          -2.4214    2.9738   -0.9159 H       1  UNL11       0.0728
     32 H          -6.4337    1.9235   -0.2482 H       1  UNL11       0.4475
     33 H          -7.0392   -0.2492    0.2019 H       1  UNL11       0.0683
     34 H          -6.4328   -2.5905    0.5344 H       1  UNL11       0.0620
     35 H          -4.0824   -3.3209    0.3765 H       1  UNL11       0.0618
     36 H          -2.3829   -1.6995   -0.1103 H       1  UNL11       0.0626
     37 H           2.0489    0.4722   -2.6657 H       1  UNL11       0.1550
     38 H           5.0661    0.1399   -1.4648 H       1  UNL11       0.0637
     39 H           6.8094    1.7491   -1.0169 H       1  UNL11       0.0618
     40 H           6.2675    4.1433   -0.6565 H       1  UNL11       0.0618
     41 H           3.9149    4.8202   -0.7692 H       1  UNL11       0.0647
@<TRIPOS>BOND
     1     1     2    1
     2     1    27    1
     3     1    28    1
     4     1    29    1
     5     2     3    1
     6     2    17    1
     7     2    30    1
     8     3     4    1
     9     4     5    2
    10     4     6    1
    11     6     7    2
    12     7     8    1
    13     7    31    1
    14     8     9    2
    15     8    10   am
    16    10    11    1
    17    10    32    1
    18    11    12   ar
    19    12    13   ar
    20    12    33    1
    21    13    14   ar
    22    13    34    1
    23    14    15   ar
    24    14    35    1
    25    15    16   ar
    26    15    36    1
    27    16     6    1
    28    16    11   ar
    29    17    18    2
    30    17    19   am
    31    19    20    1
    32    19    37    1
    33    20    21   ar
    34    21    22   ar
    35    21    38    1
    36    22    23   ar
    37    22    39    1
    38    23    24   ar
    39    23    40    1
    40    24    25   ar
    41    24    41    1
    42    25    26    1
    43    25    20   ar
@<TRIPOS>MOLECULE
*****
 41 43 0 0 0
SMALL
GASTEIGER

@<TRIPOS>ATOM
      1 C           0.3730   -0.9309   -2.6516 C.3     1  UNL11      -0.0189
      2 C           0.4633   -0.9614   -1.1545 C.3     1  UNL11       0.1761
      3 O          -0.7117   -0.6003   -0.5046 O.3     1  UNL11      -0.4487
      4 C          -1.3540    0.5960   -0.6328 C.2     1  UNL11       0.3410
      5 O          -1.7288    0.8078   -1.8632 O.2     1  UNL11      -0.2449
      6 C          -1.6605    1.6034    0.3430 C.2     1  UNL11       0.0820
      7 C          -2.6617    2.5457    0.1058 C.2     1  UNL11       0.0674
      8 C          -2.9841    3.5105    0.9939 C.2     1  UNL11       0.4077
      9 O          -3.8937    4.3545    0.7607 O.2     1  UNL11      -0.2148
     10 N          -2.3296    3.5881    2.1603 N.am    1  UNL11      -0.1444
     11 C          -1.3405    2.7003    2.4574 C.ar    1  UNL11       0.2104
     12 C          -0.6745    2.7825    3.6490 C.ar    1  UNL11       0.0097
     13 C           0.3293    1.8838    3.9538 C.ar    1  UNL11      -0.0555
     14 C           0.6824    0.8935    3.0779 C.ar    1  UNL11      -0.0608
     15 C           0.0041    0.8138    1.8701 C.ar    1  UNL11      -0.0475
     16 C          -1.0057    1.6999    1.5374 C.ar    1  UNL11       0.0599
     17 C           1.5988   -0.0666   -0.6954 C.2     1  UNL11       0.2579
     18 O           2.2236   -0.3373    0.3539 O.2     1  UNL11      -0.2714
     19 N           1.9374    1.0575   -1.4541 N.am    1  UNL11      -0.2801
     20 C           2.9631    1.9891   -1.1709 C.ar    1  UNL11       0.0691
     21 C           4.0386    2.2827   -1.9611 C.ar    1  UNL11      -0.0377
     22 C           5.0150    3.2216   -1.6086 C.ar    1  UNL11      -0.0598
     23 C           4.9274    3.9060   -0.4173 C.ar    1  UNL11      -0.0589
     24 C           3.8523    3.6268    0.3955 C.ar    1  UNL11      -0.0246
     25 C           2.9019    2.6978    0.0284 C.ar    1  UNL11       0.1445
     26 F           1.8419    2.4454    0.8660 F       1  UNL11      -0.2035
     27 H           0.2742   -1.9439   -3.0646 H       1  UNL11       0.0270
     28 H          -0.4208   -0.2378   -3.0166 H       1  UNL11       0.0270
     29 H           1.3279   -0.5197   -3.0397 H       1  UNL11       0.0270
     30 H           0.7131   -2.0008   -0.8550 H       1  UNL11       0.0830
     31 H          -3.1781    2.4677   -0.8390 H       1  UNL11       0.0728
     32 H          -2.5600    4.3321    2.8744 H       1  UNL11       0.4475
     33 H          -0.9593    3.5706    4.3399 H       1  UNL11       0.0683
     34 H           0.8182    1.9945    4.9021 H       1  UNL11       0.0620
     35 H           1.4632    0.2057    3.3315 H       1  UNL11       0.0618
     36 H           0.3209    0.0251    1.2299 H       1  UNL11       0.0626
     37 H           1.3401    1.2032   -2.3373 H       1  UNL11       0.1550
     38 H           4.1756    1.7903   -2.9048 H       1  UNL11       0.0637
     39 H           5.8487    3.4140   -2.2772 H       1  UNL11       0.0618
     40 H           5.6842    4.6434   -0.1285 H       1  UNL11       0.0618
     41 H           3.7763    4.1589    1.3313 H       1  UNL11       0.0647
@<TRIPOS>BOND
     1     1     2    1
     2     1    27    1
     3     1    28    1
     4     1    29    1
     5     2     3    1
     6     2    17    1
     7     2    30    1
     8     3     4    1
     9     4     5    2
    10     4     6    1
    11     6     7    2
    12     7     8    1
    13     7    31    1
    14     8     9    2
    15     8    10   am
    16    10    11    1
    17    10    32    1
    18    11    12   ar
    19    12    13   ar
    20    12    33    1
    21    13    14   ar
    22    13    34    1
    23    14    15   ar
    24    14    35    1
    25    15    16   ar
    26    15    36    1
    27    16     6    1
    28    16    11   ar
    29    17    18    2
    30    17    19   am
    31    19    20    1
    32    19    37    1
    33    20    21   ar
    34    21    22   ar
    35    21    38    1
    36    22    23   ar
    37    22    39    1
    38    23    24   ar
    39    23    40    1
    40    24    25   ar
    41    24    41    1
    42    25    26    1
    43    25    20   ar
@<TRIPOS>MOLECULE
*****
 41 43 0 0 0
SMALL
GASTEIGER

@<TRIPOS>ATOM
      1 C           0.3730   -0.9309   -2.6516 C.3     1  UNL11      -0.0189
      2 C           0.4633   -0.9614   -1.1545 C.3     1  UNL11       0.1761
      3 O          -0.7117   -0.6003   -0.5046 O.3     1  UNL11      -0.4487
      4 C          -1.1419    0.6768   -0.2942 C.2     1  UNL11       0.3410
      5 O          -0.7300    1.4807   -1.2339 O.2     1  UNL11      -0.2449
      6 C          -1.9421    1.2335    0.7598 C.2     1  UNL11       0.0820
      7 C          -2.6052    2.4486    0.5866 C.2     1  UNL11       0.0674
      8 C          -3.3681    3.0098    1.5492 C.2     1  UNL11       0.4077
      9 O          -3.9606    4.1108    1.3732 O.2     1  UNL11      -0.2148
     10 N          -3.5107    2.3936    2.7302 N.am    1  UNL11      -0.1444
     11 C          -2.8913    1.2042    2.9676 C.ar    1  UNL11       0.2104
     12 C          -3.0390    0.5780    4.1743 C.ar    1  UNL11       0.0097
     13 C          -2.4123   -0.6285    4.4187 C.ar    1  UNL11      -0.0555
     14 C          -1.6319   -1.2262    3.4667 C.ar    1  UNL11      -0.0608
     15 C          -1.4847   -0.5873    2.2437 C.ar    1  UNL11      -0.0475
     16 C          -2.1003    0.6218    1.9703 C.ar    1  UNL11       0.0599
     17 C           1.5988   -0.0666   -0.6954 C.2     1  UNL11       0.2579
     18 O           2.7497   -0.5370   -0.5580 O.2     1  UNL11      -0.2714
     19 N           1.3460    1.2822   -0.4292 N.am    1  UNL11      -0.2801
     20 C           2.2850    2.2476    0.0025 C.ar    1  UNL11       0.0691
     21 C           2.2365    2.9711    1.1607 C.ar    1  UNL11      -0.0377
     22 C           3.2093    3.9120    1.5178 C.ar    1  UNL11      -0.0598
     23 C           4.2843    4.1524    0.6921 C.ar    1  UNL11      -0.0589
     24 C           4.3544    3.4352   -0.4805 C.ar    1  UNL11      -0.0246
     25 C           3.3848    2.5129   -0.8126 C.ar    1  UNL11       0.1445
     26 F           3.4886    1.8154   -1.9923 F       1  UNL11      -0.2035
     27 H           0.2742   -1.9439   -3.0646 H       1  UNL11       0.0270
     28 H          -0.4208   -0.2378   -3.0166 H       1  UNL11       0.0270
     29 H           1.3279   -0.5197   -3.0397 H       1  UNL11       0.0270
     30 H           0.7131   -2.0008   -0.8550 H       1  UNL11       0.0830
     31 H          -2.4788    2.9306   -0.3711 H       1  UNL11       0.0728
     32 H          -4.1012    2.8086    3.5020 H       1  UNL11       0.4475
     33 H          -3.6596    1.0572    4.9258 H       1  UNL11       0.0683
     34 H          -2.5626   -1.0754    5.3822 H       1  UNL11       0.0620
     35 H          -1.1538   -2.1618    3.6741 H       1  UNL11       0.0618
     36 H          -0.8674   -1.0979    1.5433 H       1  UNL11       0.0626
     37 H           0.3249    1.5881   -0.5766 H       1  UNL11       0.1550
     38 H           1.4291    2.8394    1.8554 H       1  UNL11       0.0637
     39 H           3.1183    4.4580    2.4520 H       1  UNL11       0.0618
     40 H           5.0530    4.8858    0.9587 H       1  UNL11       0.0618
     41 H           5.1941    3.6177   -1.1336 H       1  UNL11       0.0647
@<TRIPOS>BOND
     1     1     2    1
     2     1    27    1
     3     1    28    1
     4     1    29    1
     5     2     3    1
     6     2    17    1
     7     2    30    1
     8     3     4    1
     9     4     5    2
    10     4     6    1
    11     6     7    2
    12     7     8    1
    13     7    31    1
    14     8     9    2
    15     8    10   am
    16    10    11    1
    17    10    32    1
    18    11    12   ar
    19    12    13   ar
    20    12    33    1
    21    13    14   ar
    22    13    34    1
    23    14    15   ar
    24    14    35    1
    25    15    16   ar
    26    15    36    1
    27    16     6    1
    28    16    11   ar
    29    17    18    2
    30    17    19   am
    31    19    20    1
    32    19    37    1
    33    20    21   ar
    34    21    22   ar
    35    21    38    1
    36    22    23   ar
    37    22    39    1
    38    23    24   ar
    39    23    40    1
    40    24    25   ar
    41    24    41    1
    42    25    26    1
    43    25    20   ar
@<TRIPOS>MOLECULE
*****
 41 43 0 0 0
SMALL
GASTEIGER

@<TRIPOS>ATOM
      1 C           0.3730   -0.9309   -2.6516 C.3     1  UNL11      -0.0189
      2 C           0.4633   -0.9614   -1.1545 C.3     1  UNL11       0.1761
      3 O          -0.7117   -0.6003   -0.5046 O.3     1  UNL11      -0.4487
      4 C          -1.1419    0.6768   -0.2942 C.2     1  UNL11       0.3410
      5 O          -0.7300    1.4807   -1.2339 O.2     1  UNL11      -0.2449
      6 C          -1.9421    1.2335    0.7598 C.2     1  UNL11       0.0820
      7 C          -2.4023    0.4327    1.8054 C.2     1  UNL11       0.0674
      8 C          -3.1570    0.9125    2.8173 C.2     1  UNL11       0.4077
      9 O          -3.5640    0.1715    3.7550 O.2     1  UNL11      -0.2148
     10 N          -3.4921    2.2095    2.8417 N.am    1  UNL11      -0.1444
     11 C          -3.0769    3.0485    1.8525 C.ar    1  UNL11       0.2104
     12 C          -3.4209    4.3718    1.8805 C.ar    1  UNL11       0.0097
     13 C          -3.0016    5.2258    0.8791 C.ar    1  UNL11      -0.0555
     14 C          -2.2359    4.7744   -0.1614 C.ar    1  UNL11      -0.0608
     15 C          -1.8893    3.4310   -0.1859 C.ar    1  UNL11      -0.0475
     16 C          -2.2946    2.5520    0.8033 C.ar    1  UNL11       0.0599
     17 C           1.5988   -0.0666   -0.6954 C.2     1  UNL11       0.2579
     18 O           2.5498   -0.5486   -0.0412 O.2     1  UNL11      -0.2714
     19 N           1.5707    1.2951   -1.0101 N.am    1  UNL11      -0.2801
     20 C           0.5578    1.9752   -1.7254 C.ar    1  UNL11       0.0691
     21 C          -0.5819    1.4279   -2.2438 C.ar    1  UNL11      -0.0377
     22 C          -1.5402    2.1715   -2.9423 C.ar    1  UNL11      -0.0598
     23 C          -1.3667    3.5228   -3.1402 C.ar    1  UNL11      -0.0589
     24 C          -0.2258    4.0964   -2.6269 C.ar    1  UNL11      -0.0246
     25 C           0.7052    3.3448   -1.9418 C.ar    1  UNL11       0.1445
     26 F           1.8328    3.9524   -1.4434 F       1  UNL11      -0.2035
     27 H           0.2742   -1.9439   -3.0646 H       1  UNL11       0.0270
     28 H          -0.4208   -0.2378   -3.0166 H       1  UNL11       0.0270
     29 H           1.3279   -0.5197   -3.0397 H       1  UNL11       0.0270
     30 H           0.7131   -2.0008   -0.8550 H       1  UNL11       0.0830
     31 H          -2.1225   -0.6093    1.7691 H       1  UNL11       0.0728
     32 H          -4.0814    2.6131    3.6203 H       1  UNL11       0.4475
     33 H          -4.0287    4.7240    2.7088 H       1  UNL11       0.0683
     34 H          -3.3003    6.2535    0.9510 H       1  UNL11       0.0620
     35 H          -1.9201    5.4513   -0.9289 H       1  UNL11       0.0618
     36 H          -1.2939    3.1374   -1.0175 H       1  UNL11       0.0626
     37 H           2.4185    1.8574   -0.6595 H       1  UNL11       0.1550
     38 H          -0.7874    0.3806   -2.1302 H       1  UNL11       0.0637
     39 H          -2.4276    1.6822   -3.3322 H       1  UNL11       0.0618
     40 H          -2.1083    4.1172   -3.6849 H       1  UNL11       0.0618
     41 H          -0.0822    5.1554   -2.7778 H       1  UNL11       0.0647
@<TRIPOS>BOND
     1     1     2    1
     2     1    27    1
     3     1    28    1
     4     1    29    1
     5     2     3    1
     6     2    17    1
     7     2    30    1
     8     3     4    1
     9     4     5    2
    10     4     6    1
    11     6     7    2
    12     7     8    1
    13     7    31    1
    14     8     9    2
    15     8    10   am
    16    10    11    1
    17    10    32    1
    18    11    12   ar
    19    12    13   ar
    20    12    33    1
    21    13    14   ar
    22    13    34    1
    23    14    15   ar
    24    14    35    1
    25    15    16   ar
    26    15    36    1
    27    16     6    1
    28    16    11   ar
    29    17    18    2
    30    17    19   am
    31    19    20    1
    32    19    37    1
    33    20    21   ar
    34    21    22   ar
    35    21    38    1
    36    22    23   ar
    37    22    39    1
    38    23    24   ar
    39    23    40    1
    40    24    25   ar
    41    24    41    1
    42    25    26    1
    43    25    20   ar
@<TRIPOS>MOLECULE
*****
 41 43 0 0 0
SMALL
GASTEIGER

@<TRIPOS>ATOM
      1 C           0.3730   -0.9309   -2.6516 C.3     1  UNL11      -0.0189
      2 C           0.4633   -0.9614   -1.1545 C.3     1  UNL11       0.1761
      3 O          -0.7117   -0.6003   -0.5046 O.3     1  UNL11      -0.4487
      4 C          -1.9095   -1.2432   -0.6152 C.2     1  UNL11       0.3410
      5 O          -2.3295   -1.2624   -1.8490 O.2     1  UNL11      -0.2449
      6 C          -2.7315   -1.8694    0.3814 C.2     1  UNL11       0.0820
      7 C          -3.9376   -2.4776    0.0326 C.2     1  UNL11       0.0674
      8 C          -4.7425   -3.0783    0.9353 C.2     1  UNL11       0.4077
      9 O          -5.8307   -3.6235    0.5997 O.2     1  UNL11      -0.2148
     10 N          -4.3908   -3.1051    2.2278 N.am    1  UNL11      -0.1444
     11 C          -3.2263   -2.5305    2.6385 C.ar    1  UNL11       0.2104
     12 C          -2.8705   -2.5598    3.9586 C.ar    1  UNL11       0.0097
     13 C          -1.6902   -1.9780    4.3790 C.ar    1  UNL11      -0.0555
     14 C          -0.8504   -1.3608    3.4921 C.ar    1  UNL11      -0.0608
     15 C          -1.2154   -1.3334    2.1537 C.ar    1  UNL11      -0.0475
     16 C          -2.3915   -1.9077    1.7034 C.ar    1  UNL11       0.0599
     17 C           1.5988   -0.0666   -0.6954 C.2     1  UNL11       0.2579
     18 O           1.5780    1.1559   -0.9595 O.2     1  UNL11      -0.2714
     19 N           2.6628   -0.6205    0.0223 N.am    1  UNL11      -0.2801
     20 C           2.8246   -1.9800    0.3768 C.ar    1  UNL11       0.0691
     21 C           3.8573   -2.7991    0.0164 C.ar    1  UNL11      -0.0377
     22 C           3.9456   -4.1395    0.4098 C.ar    1  UNL11      -0.0598
     23 C           2.9668   -4.7013    1.1982 C.ar    1  UNL11      -0.0589
     24 C           1.9164   -3.8953    1.5738 C.ar    1  UNL11      -0.0246
     25 C           1.8496   -2.5772    1.1748 C.ar    1  UNL11       0.1445
     26 F           0.7850   -1.8027    1.5698 F       1  UNL11      -0.2035
     27 H           0.2742   -1.9439   -3.0646 H       1  UNL11       0.0270
     28 H          -0.4208   -0.2378   -3.0166 H       1  UNL11       0.0270
     29 H           1.3279   -0.5197   -3.0397 H       1  UNL11       0.0270
     30 H           0.7131   -2.0008   -0.8550 H       1  UNL11       0.0830
     31 H          -4.2046   -2.4462   -1.0130 H       1  UNL11       0.0728
     32 H          -5.0003   -3.5677    2.9565 H       1  UNL11       0.4475
     33 H          -3.5411   -3.0510    4.6576 H       1  UNL11       0.0683
     34 H          -1.4606   -2.0303    5.4254 H       1  UNL11       0.0620
     35 H           0.0606   -0.9152    3.8363 H       1  UNL11       0.0618
     36 H          -0.5248   -0.8408    1.5113 H       1  UNL11       0.0626
     37 H           3.4202    0.0827    0.3220 H       1  UNL11       0.1550
     38 H           4.6581   -2.4332   -0.5974 H       1  UNL11       0.0637
     39 H           4.7906   -4.7431    0.0925 H       1  UNL11       0.0618
     40 H           3.0229   -5.7489    1.5135 H       1  UNL11       0.0618
     41 H           1.1448   -4.3282    2.1920 H       1  UNL11       0.0647
@<TRIPOS>BOND
     1     1     2    1
     2     1    27    1
     3     1    28    1
     4     1    29    1
     5     2     3    1
     6     2    17    1
     7     2    30    1
     8     3     4    1
     9     4     5    2
    10     4     6    1
    11     6     7    2
    12     7     8    1
    13     7    31    1
    14     8     9    2
    15     8    10   am
    16    10    11    1
    17    10    32    1
    18    11    12   ar
    19    12    13   ar
    20    12    33    1
    21    13    14   ar
    22    13    34    1
    23    14    15   ar
    24    14    35    1
    25    15    16   ar
    26    15    36    1
    27    16     6    1
    28    16    11   ar
    29    17    18    2
    30    17    19   am
    31    19    20    1
    32    19    37    1
    33    20    21   ar
    34    21    22   ar
    35    21    38    1
    36    22    23   ar
    37    22    39    1
    38    23    24   ar
    39    23    40    1
    40    24    25   ar
    41    24    41    1
    42    25    26    1
    43    25    20   ar
@<TRIPOS>MOLECULE
*****
 41 43 0 0 0
SMALL
GASTEIGER

@<TRIPOS>ATOM
      1 C           0.3730   -0.9309   -2.6516 C.3     1  UNL11      -0.0189
      2 C           0.4633   -0.9614   -1.1545 C.3     1  UNL11       0.1761
      3 O          -0.7117   -0.6003   -0.5046 O.3     1  UNL11      -0.4487
      4 C          -1.9095   -1.2432   -0.6152 C.2     1  UNL11       0.3410
      5 O          -2.0425   -1.8085   -1.7821 O.2     1  UNL11      -0.2449
      6 C          -2.9890   -1.3793    0.3214 C.2     1  UNL11       0.0820
      7 C          -4.1383   -2.0959   -0.0134 C.2     1  UNL11       0.0674
      8 C          -5.1777   -2.2500    0.8347 C.2     1  UNL11       0.4077
      9 O          -6.2097   -2.9025    0.5130 O.2     1  UNL11      -0.2148
     10 N          -5.1284   -1.7013    2.0559 N.am    1  UNL11      -0.1444
     11 C          -4.0366   -0.9883    2.4488 C.ar    1  UNL11       0.2104
     12 C          -3.9896   -0.4295    3.6961 C.ar    1  UNL11       0.0097
     13 C          -2.8840    0.2944    4.0982 C.ar    1  UNL11      -0.0555
     14 C          -1.8126    0.4709    3.2653 C.ar    1  UNL11      -0.0608
     15 C          -1.8645   -0.0978    2.0006 C.ar    1  UNL11      -0.0475
     16 C          -2.9587   -0.8280    1.5703 C.ar    1  UNL11       0.0599
     17 C           1.5988   -0.0666   -0.6954 C.2     1  UNL11       0.2579
     18 O           2.2864    0.5531   -1.5368 O.2     1  UNL11      -0.2714
     19 N           1.8666    0.0571    0.6709 N.am    1  UNL11      -0.2801
     20 C           1.1853   -0.5922    1.7266 C.ar    1  UNL11       0.0691
     21 C           1.7289   -1.4464    2.6443 C.ar    1  UNL11      -0.0377
     22 C           0.9844   -2.0512    3.6636 C.ar    1  UNL11      -0.0598
     23 C          -0.3641   -1.8017    3.7851 C.ar    1  UNL11      -0.0589
     24 C          -0.9339   -0.9442    2.8718 C.ar    1  UNL11      -0.0246
     25 C          -0.1814   -0.3593    1.8754 C.ar    1  UNL11       0.1445
     26 F          -0.7853    0.4920    0.9812 F       1  UNL11      -0.2035
     27 H           0.2742   -1.9439   -3.0646 H       1  UNL11       0.0270
     28 H          -0.4208   -0.2378   -3.0166 H       1  UNL11       0.0270
     29 H           1.3279   -0.5197   -3.0397 H       1  UNL11       0.0270
     30 H           0.7131   -2.0008   -0.8550 H       1  UNL11       0.0830
     31 H          -4.1602   -2.5309   -1.0012 H       1  UNL11       0.0728
     32 H          -5.9264   -1.8051    2.7407 H       1  UNL11       0.4475
     33 H          -4.8429   -0.5730    4.3525 H       1  UNL11       0.0683
     34 H          -2.9004    0.7105    5.0867 H       1  UNL11       0.0620
     35 H          -0.9639    1.0352    3.5943 H       1  UNL11       0.0618
     36 H          -1.0043    0.0722    1.3977 H       1  UNL11       0.0626
     37 H           2.6787    0.7199    0.9140 H       1  UNL11       0.1550
     38 H           2.7738   -1.6898    2.6144 H       1  UNL11       0.0637
     39 H           1.4707   -2.7223    4.3651 H       1  UNL11       0.0618
     40 H          -0.9591   -2.2680    4.5778 H       1  UNL11       0.0618
     41 H          -1.9906   -0.7433    2.9600 H       1  UNL11       0.0647
@<TRIPOS>BOND
     1     1     2    1
     2     1    27    1
     3     1    28    1
     4     1    29    1
     5     2     3    1
     6     2    17    1
     7     2    30    1
     8     3     4    1
     9     4     5    2
    10     4     6    1
    11     6     7    2
    12     7     8    1
    13     7    31    1
    14     8     9    2
    15     8    10   am
    16    10    11    1
    17    10    32    1
    18    11    12   ar
    19    12    13   ar
    20    12    33    1
    21    13    14   ar
    22    13    34    1
    23    14    15   ar
    24    14    35    1
    25    15    16   ar
    26    15    36    1
    27    16     6    1
    28    16    11   ar
    29    17    18    2
    30    17    19   am
    31    19    20    1
    32    19    37    1
    33    20    21   ar
    34    21    22   ar
    35    21    38    1
    36    22    23   ar
    37    22    39    1
    38    23    24   ar
    39    23    40    1
    40    24    25   ar
    41    24    41    1
    42    25    26    1
    43    25    20   ar
