@<TRIPOS>MOLECULE
*****
 40 42 0 0 0
SMALL
GASTEIGER

@<TRIPOS>ATOM
      1 O          -2.7996   -0.8093    0.9005 O.2     1  UNL11      -0.2698
      2 C          -2.3062    0.0974    0.1863 C.2     1  UNL11       0.2494
      3 N          -3.0643    0.5148   -0.9330 N.am    1  UNL11      -0.2664
      4 C          -4.3275   -0.0493   -1.2529 C.ar    1  UNL11       0.1251
      5 C          -5.4749    0.4962   -0.7333 C.ar    1  UNL11      -0.0215
      6 C          -6.6939   -0.0822   -1.0684 C.ar    1  UNL11      -0.0571
      7 C          -6.7323   -1.1609   -1.8914 C.ar    1  UNL11      -0.0435
      8 C          -5.5694   -1.6905   -2.4002 C.ar    1  UNL11       0.0297
      9 N          -4.4064   -1.1097   -2.0582 N.ar    1  UNL11      -0.2401
     10 C          -1.0143    0.6424    0.5555 C.ar    1  UNL11       0.0389
     11 C          -0.5883    0.6883    1.8768 C.ar    1  UNL11      -0.0495
     12 C           0.6454    1.2122    2.2002 C.ar    1  UNL11      -0.0592
     13 C           1.4720    1.6974    1.2150 C.ar    1  UNL11      -0.0350
     14 C           1.0604    1.6566   -0.0947 C.ar    1  UNL11       0.1092
     15 S           2.1127    2.2705   -1.3871 S.O2    1  UNL11       0.0724
     16 O           1.3803    3.3652   -2.1320 O.2     1  UNL11      -0.1500
     17 O           2.3455    1.1627   -2.3541 O.2     1  UNL11      -0.1500
     18 N           3.5899    2.8672   -0.7873 N.pl3   1  UNL11      -0.2135
     19 C           4.5606    2.1201   -0.0705 C.ar    1  UNL11       0.0831
     20 C           5.5854    1.4583   -0.7062 C.ar    1  UNL11      -0.0365
     21 C           6.5322    0.7190   -0.0054 C.ar    1  UNL11      -0.0598
     22 C           6.4773    0.6213    1.3686 C.ar    1  UNL11      -0.0589
     23 C           5.4543    1.2805    2.0162 C.ar    1  UNL11      -0.0246
     24 C           4.5185    2.0119    1.3173 C.ar    1  UNL11       0.1456
     25 F           3.5188    2.6553    1.9603 F       1  UNL11      -0.2035
     26 C          -0.1704    1.1343   -0.4196 C.ar    1  UNL11      -0.0230
     27 H          -2.6741    1.2775   -1.5561 H       1  UNL11       0.1566
     28 H          -5.3849    1.3546   -0.0835 H       1  UNL11       0.0652
     29 H          -7.5974    0.3765   -0.6372 H       1  UNL11       0.0619
     30 H          -7.7144   -1.5842   -2.1287 H       1  UNL11       0.0633
     31 H          -5.6426   -2.5495   -3.0517 H       1  UNL11       0.0830
     32 H          -1.2346    0.3046    2.6850 H       1  UNL11       0.0625
     33 H           0.9451    1.2299    3.2597 H       1  UNL11       0.0618
     34 H           2.4450    2.1117    1.5052 H       1  UNL11       0.0637
     35 H           3.8365    3.8948   -0.9495 H       1  UNL11       0.1738
     36 H           5.7001    1.4755   -1.7673 H       1  UNL11       0.0637
     37 H           7.3366    0.2039   -0.5458 H       1  UNL11       0.0618
     38 H           7.2240    0.0391    1.9143 H       1  UNL11       0.0618
     39 H           5.3987    1.2126    3.0961 H       1  UNL11       0.0647
     40 H          -0.4648    1.1191   -1.4813 H       1  UNL11       0.0645
@<TRIPOS>BOND
     1     1     2    2
     2     2     3   am
     3     2    10    1
     4     3     4    1
     5     3    27    1
     6     4     5   ar
     7     5     6   ar
     8     5    28    1
     9     6     7   ar
    10     6    29    1
    11     7     8   ar
    12     7    30    1
    13     8     9   ar
    14     8    31    1
    15     9     4   ar
    16    10    11   ar
    17    11    12   ar
    18    11    32    1
    19    12    13   ar
    20    12    33    1
    21    13    14   ar
    22    13    34    1
    23    14    15    1
    24    14    26   ar
    25    15    16    2
    26    15    17    2
    27    15    18    1
    28    18    19    1
    29    18    35    1
    30    19    20   ar
    31    20    21   ar
    32    20    36    1
    33    21    22   ar
    34    21    37    1
    35    22    23   ar
    36    22    38    1
    37    23    24   ar
    38    23    39    1
    39    24    25    1
    40    24    19   ar
    41    26    10   ar
    42    26    40    1
@<TRIPOS>MOLECULE
*****
 40 42 0 0 0
SMALL
GASTEIGER

@<TRIPOS>ATOM
      1 O          -2.4271   -0.4467   -0.9384 O.2     1  UNL11      -0.2698
      2 C          -2.3062    0.0974    0.1863 C.2     1  UNL11       0.2494
      3 N          -3.4576    0.1321    1.0079 N.am    1  UNL11      -0.2664
      4 C          -3.4595    0.7322    2.2947 C.ar    1  UNL11       0.1251
      5 C          -3.1372   -0.0136    3.4010 C.ar    1  UNL11      -0.0215
      6 C          -3.1493    0.6072    4.6449 C.ar    1  UNL11      -0.0571
      7 C          -3.4743    1.9212    4.7468 C.ar    1  UNL11      -0.0435
      8 C          -3.7939    2.6487    3.6241 C.ar    1  UNL11       0.0297
      9 N          -3.7735    2.0209    2.4358 N.ar    1  UNL11      -0.2401
     10 C          -1.0143    0.6424    0.5555 C.ar    1  UNL11       0.0389
     11 C          -0.5883    0.6883    1.8768 C.ar    1  UNL11      -0.0495
     12 C           0.6454    1.2122    2.2002 C.ar    1  UNL11      -0.0592
     13 C           1.4720    1.6974    1.2150 C.ar    1  UNL11      -0.0350
     14 C           1.0604    1.6566   -0.0947 C.ar    1  UNL11       0.1092
     15 S           2.1127    2.2705   -1.3871 S.O2    1  UNL11       0.0724
     16 O           1.8681    1.4587   -2.6404 O.2     1  UNL11      -0.1500
     17 O           3.5251    2.0334   -0.9802 O.2     1  UNL11      -0.1500
     18 N           1.8466    3.9214   -1.7060 N.pl3   1  UNL11      -0.2135
     19 C           0.9072    4.7563   -1.0467 C.ar    1  UNL11       0.0831
     20 C           1.2355    5.4737    0.0802 C.ar    1  UNL11      -0.0365
     21 C           0.3133    6.2855    0.7319 C.ar    1  UNL11      -0.0598
     22 C          -0.9791    6.4020    0.2666 C.ar    1  UNL11      -0.0589
     23 C          -1.3192    5.6874   -0.8621 C.ar    1  UNL11      -0.0246
     24 C          -0.4018    4.8843   -1.5044 C.ar    1  UNL11       0.1456
     25 F          -0.7437    4.1871   -2.6107 F       1  UNL11      -0.2035
     26 C          -0.1704    1.1343   -0.4196 C.ar    1  UNL11      -0.0230
     27 H          -4.3524   -0.3066    0.6486 H       1  UNL11       0.1566
     28 H          -2.8866   -1.0552    3.2610 H       1  UNL11       0.0652
     29 H          -2.8864   -0.0154    5.5142 H       1  UNL11       0.0619
     30 H          -3.4710    2.3693    5.7463 H       1  UNL11       0.0633
     31 H          -4.0471    3.6919    3.7476 H       1  UNL11       0.0830
     32 H          -1.2346    0.3046    2.6850 H       1  UNL11       0.0625
     33 H           0.9451    1.2299    3.2597 H       1  UNL11       0.0618
     34 H           2.4450    2.1117    1.5052 H       1  UNL11       0.0637
     35 H           2.4245    4.4007   -2.4671 H       1  UNL11       0.1738
     36 H           2.2111    5.4376    0.5117 H       1  UNL11       0.0637
     37 H           0.6105    6.8439    1.6288 H       1  UNL11       0.0618
     38 H          -1.6997    7.0415    0.7825 H       1  UNL11       0.0618
     39 H          -2.3316    5.7695   -1.2393 H       1  UNL11       0.0647
     40 H          -0.4648    1.1191   -1.4813 H       1  UNL11       0.0645
@<TRIPOS>BOND
     1     1     2    2
     2     2     3   am
     3     2    10    1
     4     3     4    1
     5     3    27    1
     6     4     5   ar
     7     5     6   ar
     8     5    28    1
     9     6     7   ar
    10     6    29    1
    11     7     8   ar
    12     7    30    1
    13     8     9   ar
    14     8    31    1
    15     9     4   ar
    16    10    11   ar
    17    11    12   ar
    18    11    32    1
    19    12    13   ar
    20    12    33    1
    21    13    14   ar
    22    13    34    1
    23    14    15    1
    24    14    26   ar
    25    15    16    2
    26    15    17    2
    27    15    18    1
    28    18    19    1
    29    18    35    1
    30    19    20   ar
    31    20    21   ar
    32    20    36    1
    33    21    22   ar
    34    21    37    1
    35    22    23   ar
    36    22    38    1
    37    23    24   ar
    38    23    39    1
    39    24    25    1
    40    24    19   ar
    41    26    10   ar
    42    26    40    1
@<TRIPOS>MOLECULE
*****
 40 42 0 0 0
SMALL
GASTEIGER

@<TRIPOS>ATOM
      1 O          -3.2485    0.1795    1.0115 O.2     1  UNL11      -0.2698
      2 C          -2.3062    0.0974    0.1863 C.2     1  UNL11       0.2494
      3 N          -2.5906   -0.5288   -1.0502 N.am    1  UNL11      -0.2664
      4 C          -3.8745   -1.0464   -1.3664 C.ar    1  UNL11       0.1251
      5 C          -4.1886   -2.3447   -1.0506 C.ar    1  UNL11      -0.0215
      6 C          -5.4551   -2.8174   -1.3751 C.ar    1  UNL11      -0.0571
      7 C          -6.3493   -2.0018   -1.9898 C.ar    1  UNL11      -0.0435
      8 C          -6.0122   -0.7042   -2.2966 C.ar    1  UNL11       0.0297
      9 N          -4.7804   -0.2760   -1.9705 N.ar    1  UNL11      -0.2401
     10 C          -1.0143    0.6424    0.5555 C.ar    1  UNL11       0.0389
     11 C          -0.5883    0.6883    1.8768 C.ar    1  UNL11      -0.0495
     12 C           0.6454    1.2122    2.2002 C.ar    1  UNL11      -0.0592
     13 C           1.4720    1.6974    1.2150 C.ar    1  UNL11      -0.0350
     14 C           1.0604    1.6566   -0.0947 C.ar    1  UNL11       0.1092
     15 S           2.1127    2.2705   -1.3871 S.O2    1  UNL11       0.0724
     16 O           2.9463    3.4072   -0.8369 O.2     1  UNL11      -0.1500
     17 O           1.2444    2.8404   -2.4538 O.2     1  UNL11      -0.1500
     18 N           3.1296    1.0609   -2.0201 N.pl3   1  UNL11      -0.2135
     19 C           2.7057   -0.1367   -2.6528 C.ar    1  UNL11       0.0831
     20 C           2.4908   -1.2971   -1.9460 C.ar    1  UNL11      -0.0365
     21 C           2.0836   -2.4734   -2.5662 C.ar    1  UNL11      -0.0598
     22 C           1.8783   -2.5197   -3.9286 C.ar    1  UNL11      -0.0589
     23 C           2.0910   -1.3626   -4.6471 C.ar    1  UNL11      -0.0246
     24 C           2.4944   -0.1994   -4.0278 C.ar    1  UNL11       0.1456
     25 F           2.7003    0.9308   -4.7400 F       1  UNL11      -0.2035
     26 C          -0.1704    1.1343   -0.4196 C.ar    1  UNL11      -0.0230
     27 H          -1.8156   -0.6145   -1.7672 H       1  UNL11       0.1566
     28 H          -3.4380   -2.9486   -0.5617 H       1  UNL11       0.0652
     29 H          -5.6792   -3.8623   -1.1097 H       1  UNL11       0.0619
     30 H          -7.3353   -2.4160   -2.2268 H       1  UNL11       0.0633
     31 H          -6.7521   -0.0872   -2.7859 H       1  UNL11       0.0830
     32 H          -1.2346    0.3046    2.6850 H       1  UNL11       0.0625
     33 H           0.9451    1.2299    3.2597 H       1  UNL11       0.0618
     34 H           2.4450    2.1117    1.5052 H       1  UNL11       0.0637
     35 H           4.1889    1.1866   -1.9490 H       1  UNL11       0.1738
     36 H           2.6313   -1.3522   -0.8893 H       1  UNL11       0.0637
     37 H           1.9214   -3.3807   -1.9704 H       1  UNL11       0.0618
     38 H           1.5582   -3.4467   -4.4109 H       1  UNL11       0.0618
     39 H           1.9334   -1.3842   -5.7188 H       1  UNL11       0.0647
     40 H          -0.4648    1.1191   -1.4813 H       1  UNL11       0.0645
@<TRIPOS>BOND
     1     1     2    2
     2     2     3   am
     3     2    10    1
     4     3     4    1
     5     3    27    1
     6     4     5   ar
     7     5     6   ar
     8     5    28    1
     9     6     7   ar
    10     6    29    1
    11     7     8   ar
    12     7    30    1
    13     8     9   ar
    14     8    31    1
    15     9     4   ar
    16    10    11   ar
    17    11    12   ar
    18    11    32    1
    19    12    13   ar
    20    12    33    1
    21    13    14   ar
    22    13    34    1
    23    14    15    1
    24    14    26   ar
    25    15    16    2
    26    15    17    2
    27    15    18    1
    28    18    19    1
    29    18    35    1
    30    19    20   ar
    31    20    21   ar
    32    20    36    1
    33    21    22   ar
    34    21    37    1
    35    22    23   ar
    36    22    38    1
    37    23    24   ar
    38    23    39    1
    39    24    25    1
    40    24    19   ar
    41    26    10   ar
    42    26    40    1
@<TRIPOS>MOLECULE
*****
 40 42 0 0 0
SMALL
GASTEIGER

@<TRIPOS>ATOM
      1 O          -2.7996   -0.8093    0.9005 O.2     1  UNL11      -0.2698
      2 C          -2.3062    0.0974    0.1863 C.2     1  UNL11       0.2494
      3 N          -3.0643    0.5148   -0.9330 N.am    1  UNL11      -0.2664
      4 C          -4.3275   -0.0493   -1.2529 C.ar    1  UNL11       0.1251
      5 C          -5.4749    0.4962   -0.7333 C.ar    1  UNL11      -0.0215
      6 C          -6.6939   -0.0822   -1.0684 C.ar    1  UNL11      -0.0571
      7 C          -6.7323   -1.1609   -1.8914 C.ar    1  UNL11      -0.0435
      8 C          -5.5694   -1.6905   -2.4002 C.ar    1  UNL11       0.0297
      9 N          -4.4064   -1.1097   -2.0582 N.ar    1  UNL11      -0.2401
     10 C          -1.0143    0.6424    0.5555 C.ar    1  UNL11       0.0389
     11 C          -0.5883    0.6883    1.8768 C.ar    1  UNL11      -0.0495
     12 C           0.6454    1.2122    2.2002 C.ar    1  UNL11      -0.0592
     13 C           1.4720    1.6974    1.2150 C.ar    1  UNL11      -0.0350
     14 C           1.0604    1.6566   -0.0947 C.ar    1  UNL11       0.1092
     15 S           2.1127    2.2705   -1.3871 S.O2    1  UNL11       0.0724
     16 O           2.4444    1.1316   -2.3265 O.2     1  UNL11      -0.1500
     17 O           3.3915    2.7128   -0.7661 O.2     1  UNL11      -0.1500
     18 N           1.3917    3.5452   -2.2550 N.pl3   1  UNL11      -0.2135
     19 C           0.0000    3.7274   -2.4653 C.ar    1  UNL11       0.0831
     20 C          -0.7783    4.4570   -1.5970 C.ar    1  UNL11      -0.0365
     21 C          -2.1437    4.6290   -1.7976 C.ar    1  UNL11      -0.0598
     22 C          -2.7743    4.0676   -2.8874 C.ar    1  UNL11      -0.0589
     23 C          -2.0039    3.3340   -3.7643 C.ar    1  UNL11      -0.0246
     24 C          -0.6512    3.1665   -3.5610 C.ar    1  UNL11       0.1456
     25 F           0.0967    2.4459   -4.4260 F       1  UNL11      -0.2035
     26 C          -0.1704    1.1343   -0.4196 C.ar    1  UNL11      -0.0230
     27 H          -2.6741    1.2775   -1.5561 H       1  UNL11       0.1566
     28 H          -5.3849    1.3546   -0.0835 H       1  UNL11       0.0652
     29 H          -7.5974    0.3765   -0.6372 H       1  UNL11       0.0619
     30 H          -7.7144   -1.5842   -2.1287 H       1  UNL11       0.0633
     31 H          -5.6426   -2.5495   -3.0517 H       1  UNL11       0.0830
     32 H          -1.2346    0.3046    2.6850 H       1  UNL11       0.0625
     33 H           0.9451    1.2299    3.2597 H       1  UNL11       0.0618
     34 H           2.4450    2.1117    1.5052 H       1  UNL11       0.0637
     35 H           2.0189    4.2918   -2.6935 H       1  UNL11       0.1738
     36 H          -0.3736    4.9211   -0.7252 H       1  UNL11       0.0637
     37 H          -2.7338    5.2180   -1.0839 H       1  UNL11       0.0618
     38 H          -3.8476    4.2060   -3.0403 H       1  UNL11       0.0618
     39 H          -2.4862    2.8870   -4.6254 H       1  UNL11       0.0647
     40 H          -0.4648    1.1191   -1.4813 H       1  UNL11       0.0645
@<TRIPOS>BOND
     1     1     2    2
     2     2     3   am
     3     2    10    1
     4     3     4    1
     5     3    27    1
     6     4     5   ar
     7     5     6   ar
     8     5    28    1
     9     6     7   ar
    10     6    29    1
    11     7     8   ar
    12     7    30    1
    13     8     9   ar
    14     8    31    1
    15     9     4   ar
    16    10    11   ar
    17    11    12   ar
    18    11    32    1
    19    12    13   ar
    20    12    33    1
    21    13    14   ar
    22    13    34    1
    23    14    15    1
    24    14    26   ar
    25    15    16    2
    26    15    17    2
    27    15    18    1
    28    18    19    1
    29    18    35    1
    30    19    20   ar
    31    20    21   ar
    32    20    36    1
    33    21    22   ar
    34    21    37    1
    35    22    23   ar
    36    22    38    1
    37    23    24   ar
    38    23    39    1
    39    24    25    1
    40    24    19   ar
    41    26    10   ar
    42    26    40    1
@<TRIPOS>MOLECULE
*****
 40 42 0 0 0
SMALL
GASTEIGER

@<TRIPOS>ATOM
      1 O          -2.7996   -0.8093    0.9005 O.2     1  UNL11      -0.2698
      2 C          -2.3062    0.0974    0.1863 C.2     1  UNL11       0.2494
      3 N          -3.0643    0.5148   -0.9330 N.am    1  UNL11      -0.2664
      4 C          -2.6128    1.5191   -1.8295 C.ar    1  UNL11       0.1251
      5 C          -1.8635    1.1742   -2.9265 C.ar    1  UNL11      -0.0215
      6 C          -1.4389    2.1839   -3.7827 C.ar    1  UNL11      -0.0571
      7 C          -1.7658    3.4761   -3.5262 C.ar    1  UNL11      -0.0435
      8 C          -2.5178    3.7981   -2.4205 C.ar    1  UNL11       0.0297
      9 N          -2.9135    2.8002   -1.6115 N.ar    1  UNL11      -0.2401
     10 C          -1.0143    0.6424    0.5555 C.ar    1  UNL11       0.0389
     11 C          -0.5883    0.6883    1.8768 C.ar    1  UNL11      -0.0495
     12 C           0.6454    1.2122    2.2002 C.ar    1  UNL11      -0.0592
     13 C           1.4720    1.6974    1.2150 C.ar    1  UNL11      -0.0350
     14 C           1.0604    1.6566   -0.0947 C.ar    1  UNL11       0.1092
     15 S           2.1127    2.2705   -1.3871 S.O2    1  UNL11       0.0724
     16 O           2.4444    1.1316   -2.3265 O.2     1  UNL11      -0.1500
     17 O           3.3915    2.7128   -0.7661 O.2     1  UNL11      -0.1500
     18 N           1.3917    3.5452   -2.2550 N.pl3   1  UNL11      -0.2135
     19 C           2.0770    4.6182   -2.8822 C.ar    1  UNL11       0.0831
     20 C           2.5009    4.5470   -4.1889 C.ar    1  UNL11      -0.0365
     21 C           3.1799    5.5946   -4.8018 C.ar    1  UNL11      -0.0598
     22 C           3.4562    6.7566   -4.1135 C.ar    1  UNL11      -0.0589
     23 C           3.0361    6.8390   -2.8031 C.ar    1  UNL11      -0.0246
     24 C           2.3635    5.7981   -2.2002 C.ar    1  UNL11       0.1456
     25 F           1.9550    5.8874   -0.9149 F       1  UNL11      -0.2035
     26 C          -0.1704    1.1343   -0.4196 C.ar    1  UNL11      -0.0230
     27 H          -4.0049    0.0602   -1.1086 H       1  UNL11       0.1566
     28 H          -1.6331    0.1301   -3.0814 H       1  UNL11       0.0652
     29 H          -0.8398    1.8778   -4.6544 H       1  UNL11       0.0619
     30 H          -1.4101    4.2389   -4.2273 H       1  UNL11       0.0633
     31 H          -2.7566    4.8383   -2.2515 H       1  UNL11       0.0830
     32 H          -1.2346    0.3046    2.6850 H       1  UNL11       0.0625
     33 H           0.9451    1.2299    3.2597 H       1  UNL11       0.0618
     34 H           2.4450    2.1117    1.5052 H       1  UNL11       0.0637
     35 H           0.3274    3.5667   -2.3534 H       1  UNL11       0.1738
     36 H           2.3344    3.6830   -4.7932 H       1  UNL11       0.0637
     37 H           3.5032    5.5029   -5.8465 H       1  UNL11       0.0618
     38 H           3.9900    7.5768   -4.6000 H       1  UNL11       0.0618
     39 H           3.2462    7.7465   -2.2498 H       1  UNL11       0.0647
     40 H          -0.4648    1.1191   -1.4813 H       1  UNL11       0.0645
@<TRIPOS>BOND
     1     1     2    2
     2     2     3   am
     3     2    10    1
     4     3     4    1
     5     3    27    1
     6     4     5   ar
     7     5     6   ar
     8     5    28    1
     9     6     7   ar
    10     6    29    1
    11     7     8   ar
    12     7    30    1
    13     8     9   ar
    14     8    31    1
    15     9     4   ar
    16    10    11   ar
    17    11    12   ar
    18    11    32    1
    19    12    13   ar
    20    12    33    1
    21    13    14   ar
    22    13    34    1
    23    14    15    1
    24    14    26   ar
    25    15    16    2
    26    15    17    2
    27    15    18    1
    28    18    19    1
    29    18    35    1
    30    19    20   ar
    31    20    21   ar
    32    20    36    1
    33    21    22   ar
    34    21    37    1
    35    22    23   ar
    36    22    38    1
    37    23    24   ar
    38    23    39    1
    39    24    25    1
    40    24    19   ar
    41    26    10   ar
    42    26    40    1
@<TRIPOS>MOLECULE
*****
 40 42 0 0 0
SMALL
GASTEIGER

@<TRIPOS>ATOM
      1 O          -2.8856    0.5634   -0.8250 O.2     1  UNL11      -0.2698
      2 C          -2.3062    0.0974    0.1863 C.2     1  UNL11       0.2494
      3 N          -2.9736   -0.9340    0.8882 N.am    1  UNL11      -0.2664
      4 C          -4.2394   -1.4362    0.4858 C.ar    1  UNL11       0.1251
      5 C          -4.3133   -2.4872   -0.3938 C.ar    1  UNL11      -0.0215
      6 C          -5.5695   -2.9528   -0.7654 C.ar    1  UNL11      -0.0571
      7 C          -6.6876   -2.3711   -0.2614 C.ar    1  UNL11      -0.0435
      8 C          -6.5890   -1.3189    0.6189 C.ar    1  UNL11       0.0297
      9 N          -5.3609   -0.8911    0.9591 N.ar    1  UNL11      -0.2401
     10 C          -1.0143    0.6424    0.5555 C.ar    1  UNL11       0.0389
     11 C          -0.5883    0.6883    1.8768 C.ar    1  UNL11      -0.0495
     12 C           0.6454    1.2122    2.2002 C.ar    1  UNL11      -0.0592
     13 C           1.4720    1.6974    1.2150 C.ar    1  UNL11      -0.0350
     14 C           1.0604    1.6566   -0.0947 C.ar    1  UNL11       0.1092
     15 S           2.1127    2.2705   -1.3871 S.O2    1  UNL11       0.0724
     16 O           2.4444    1.1316   -2.3265 O.2     1  UNL11      -0.1500
     17 O           3.3915    2.7128   -0.7661 O.2     1  UNL11      -0.1500
     18 N           1.3917    3.5452   -2.2550 N.pl3   1  UNL11      -0.2135
     19 C           0.0000    3.7274   -2.4653 C.ar    1  UNL11       0.0831
     20 C          -0.7783    4.4570   -1.5970 C.ar    1  UNL11      -0.0365
     21 C          -2.1437    4.6290   -1.7976 C.ar    1  UNL11      -0.0598
     22 C          -2.7743    4.0676   -2.8874 C.ar    1  UNL11      -0.0589
     23 C          -2.0039    3.3340   -3.7643 C.ar    1  UNL11      -0.0246
     24 C          -0.6512    3.1665   -3.5610 C.ar    1  UNL11       0.1456
     25 F           0.0967    2.4459   -4.4260 F       1  UNL11      -0.2035
     26 C          -0.1704    1.1343   -0.4196 C.ar    1  UNL11      -0.0230
     27 H          -2.5108   -1.3471    1.7469 H       1  UNL11       0.1566
     28 H          -3.3910   -2.9116   -0.7632 H       1  UNL11       0.0652
     29 H          -5.5983   -3.7968   -1.4720 H       1  UNL11       0.0619
     30 H          -7.6562   -2.7702   -0.5814 H       1  UNL11       0.0633
     31 H          -7.5026   -0.8833    0.9973 H       1  UNL11       0.0830
     32 H          -1.2346    0.3046    2.6850 H       1  UNL11       0.0625
     33 H           0.9451    1.2299    3.2597 H       1  UNL11       0.0618
     34 H           2.4450    2.1117    1.5052 H       1  UNL11       0.0637
     35 H           2.0189    4.2918   -2.6935 H       1  UNL11       0.1738
     36 H          -0.3736    4.9211   -0.7252 H       1  UNL11       0.0637
     37 H          -2.7338    5.2180   -1.0839 H       1  UNL11       0.0618
     38 H          -3.8476    4.2060   -3.0403 H       1  UNL11       0.0618
     39 H          -2.4862    2.8870   -4.6254 H       1  UNL11       0.0647
     40 H          -0.4648    1.1191   -1.4813 H       1  UNL11       0.0645
@<TRIPOS>BOND
     1     1     2    2
     2     2     3   am
     3     2    10    1
     4     3     4    1
     5     3    27    1
     6     4     5   ar
     7     5     6   ar
     8     5    28    1
     9     6     7   ar
    10     6    29    1
    11     7     8   ar
    12     7    30    1
    13     8     9   ar
    14     8    31    1
    15     9     4   ar
    16    10    11   ar
    17    11    12   ar
    18    11    32    1
    19    12    13   ar
    20    12    33    1
    21    13    14   ar
    22    13    34    1
    23    14    15    1
    24    14    26   ar
    25    15    16    2
    26    15    17    2
    27    15    18    1
    28    18    19    1
    29    18    35    1
    30    19    20   ar
    31    20    21   ar
    32    20    36    1
    33    21    22   ar
    34    21    37    1
    35    22    23   ar
    36    22    38    1
    37    23    24   ar
    38    23    39    1
    39    24    25    1
    40    24    19   ar
    41    26    10   ar
    42    26    40    1
@<TRIPOS>MOLECULE
*****
 40 42 0 0 0
SMALL
GASTEIGER

@<TRIPOS>ATOM
      1 O          -2.8856    0.5634   -0.8250 O.2     1  UNL11      -0.2698
      2 C          -2.3062    0.0974    0.1863 C.2     1  UNL11       0.2494
      3 N          -2.9736   -0.9340    0.8882 N.am    1  UNL11      -0.2664
      4 C          -2.4350   -1.5349    2.0565 C.ar    1  UNL11       0.1251
      5 C          -2.7194   -1.0099    3.2925 C.ar    1  UNL11      -0.0215
      6 C          -2.1749   -1.6245    4.4144 C.ar    1  UNL11      -0.0571
      7 C          -1.3822   -2.7175    4.2744 C.ar    1  UNL11      -0.0435
      8 C          -1.1110   -3.2260    3.0256 C.ar    1  UNL11       0.0297
      9 N          -1.6518   -2.6102    1.9602 N.ar    1  UNL11      -0.2401
     10 C          -1.0143    0.6424    0.5555 C.ar    1  UNL11       0.0389
     11 C          -0.5883    0.6883    1.8768 C.ar    1  UNL11      -0.0495
     12 C           0.6454    1.2122    2.2002 C.ar    1  UNL11      -0.0592
     13 C           1.4720    1.6974    1.2150 C.ar    1  UNL11      -0.0350
     14 C           1.0604    1.6566   -0.0947 C.ar    1  UNL11       0.1092
     15 S           2.1127    2.2705   -1.3871 S.O2    1  UNL11       0.0724
     16 O           1.8681    1.4587   -2.6404 O.2     1  UNL11      -0.1500
     17 O           3.5251    2.0334   -0.9802 O.2     1  UNL11      -0.1500
     18 N           1.8466    3.9214   -1.7060 N.pl3   1  UNL11      -0.2135
     19 C           0.9072    4.7563   -1.0467 C.ar    1  UNL11       0.0831
     20 C           1.2355    5.4737    0.0802 C.ar    1  UNL11      -0.0365
     21 C           0.3133    6.2855    0.7319 C.ar    1  UNL11      -0.0598
     22 C          -0.9791    6.4020    0.2666 C.ar    1  UNL11      -0.0589
     23 C          -1.3192    5.6874   -0.8621 C.ar    1  UNL11      -0.0246
     24 C          -0.4018    4.8843   -1.5044 C.ar    1  UNL11       0.1456
     25 F          -0.7437    4.1871   -2.6107 F       1  UNL11      -0.2035
     26 C          -0.1704    1.1343   -0.4196 C.ar    1  UNL11      -0.0230
     27 H          -3.9112   -1.2705    0.5278 H       1  UNL11       0.1566
     28 H          -3.3561   -0.1386    3.3445 H       1  UNL11       0.0652
     29 H          -2.4202   -1.1820    5.3923 H       1  UNL11       0.0619
     30 H          -0.9747   -3.1694    5.1853 H       1  UNL11       0.0633
     31 H          -0.4756   -4.0972    2.9568 H       1  UNL11       0.0830
     32 H          -1.2346    0.3046    2.6850 H       1  UNL11       0.0625
     33 H           0.9451    1.2299    3.2597 H       1  UNL11       0.0618
     34 H           2.4450    2.1117    1.5052 H       1  UNL11       0.0637
     35 H           2.4245    4.4007   -2.4671 H       1  UNL11       0.1738
     36 H           2.2111    5.4376    0.5117 H       1  UNL11       0.0637
     37 H           0.6105    6.8439    1.6288 H       1  UNL11       0.0618
     38 H          -1.6997    7.0415    0.7825 H       1  UNL11       0.0618
     39 H          -2.3316    5.7695   -1.2393 H       1  UNL11       0.0647
     40 H          -0.4648    1.1191   -1.4813 H       1  UNL11       0.0645
@<TRIPOS>BOND
     1     1     2    2
     2     2     3   am
     3     2    10    1
     4     3     4    1
     5     3    27    1
     6     4     5   ar
     7     5     6   ar
     8     5    28    1
     9     6     7   ar
    10     6    29    1
    11     7     8   ar
    12     7    30    1
    13     8     9   ar
    14     8    31    1
    15     9     4   ar
    16    10    11   ar
    17    11    12   ar
    18    11    32    1
    19    12    13   ar
    20    12    33    1
    21    13    14   ar
    22    13    34    1
    23    14    15    1
    24    14    26   ar
    25    15    16    2
    26    15    17    2
    27    15    18    1
    28    18    19    1
    29    18    35    1
    30    19    20   ar
    31    20    21   ar
    32    20    36    1
    33    21    22   ar
    34    21    37    1
    35    22    23   ar
    36    22    38    1
    37    23    24   ar
    38    23    39    1
    39    24    25    1
    40    24    19   ar
    41    26    10   ar
    42    26    40    1
@<TRIPOS>MOLECULE
*****
 40 42 0 0 0
SMALL
GASTEIGER

@<TRIPOS>ATOM
      1 O          -2.7996   -0.8093    0.9005 O.2     1  UNL11      -0.2698
      2 C          -2.3062    0.0974    0.1863 C.2     1  UNL11       0.2494
      3 N          -3.0643    0.5148   -0.9330 N.am    1  UNL11      -0.2664
      4 C          -2.6128    1.5191   -1.8295 C.ar    1  UNL11       0.1251
      5 C          -1.8635    1.1742   -2.9265 C.ar    1  UNL11      -0.0215
      6 C          -1.4389    2.1839   -3.7827 C.ar    1  UNL11      -0.0571
      7 C          -1.7658    3.4761   -3.5262 C.ar    1  UNL11      -0.0435
      8 C          -2.5178    3.7981   -2.4205 C.ar    1  UNL11       0.0297
      9 N          -2.9135    2.8002   -1.6115 N.ar    1  UNL11      -0.2401
     10 C          -1.0143    0.6424    0.5555 C.ar    1  UNL11       0.0389
     11 C          -0.5883    0.6883    1.8768 C.ar    1  UNL11      -0.0495
     12 C           0.6454    1.2122    2.2002 C.ar    1  UNL11      -0.0592
     13 C           1.4720    1.6974    1.2150 C.ar    1  UNL11      -0.0350
     14 C           1.0604    1.6566   -0.0947 C.ar    1  UNL11       0.1092
     15 S           2.1127    2.2705   -1.3871 S.O2    1  UNL11       0.0724
     16 O           1.8681    1.4587   -2.6404 O.2     1  UNL11      -0.1500
     17 O           3.5251    2.0334   -0.9802 O.2     1  UNL11      -0.1500
     18 N           1.8466    3.9214   -1.7060 N.pl3   1  UNL11      -0.2135
     19 C           0.6190    4.5032   -2.1167 C.ar    1  UNL11       0.0831
     20 C           0.2861    4.6398   -3.4444 C.ar    1  UNL11      -0.0365
     21 C          -0.9129    5.2175   -3.8481 C.ar    1  UNL11      -0.0598
     22 C          -1.8223    5.6799   -2.9209 C.ar    1  UNL11      -0.0589
     23 C          -1.4989    5.5482   -1.5873 C.ar    1  UNL11      -0.0246
     24 C          -0.3096    4.9750   -1.1923 C.ar    1  UNL11       0.1456
     25 F          -0.0006    4.8496    0.1175 F       1  UNL11      -0.2035
     26 C          -0.1704    1.1343   -0.4196 C.ar    1  UNL11      -0.0230
     27 H          -4.0049    0.0602   -1.1086 H       1  UNL11       0.1566
     28 H          -1.6331    0.1301   -3.0814 H       1  UNL11       0.0652
     29 H          -0.8398    1.8778   -4.6544 H       1  UNL11       0.0619
     30 H          -1.4101    4.2389   -4.2273 H       1  UNL11       0.0633
     31 H          -2.7566    4.8383   -2.2515 H       1  UNL11       0.0830
     32 H          -1.2346    0.3046    2.6850 H       1  UNL11       0.0625
     33 H           0.9451    1.2299    3.2597 H       1  UNL11       0.0618
     34 H           2.4450    2.1117    1.5052 H       1  UNL11       0.0637
     35 H           2.6596    4.6069   -1.5958 H       1  UNL11       0.1738
     36 H           0.9336    4.3146   -4.2282 H       1  UNL11       0.0637
     37 H          -1.1456    5.3100   -4.9166 H       1  UNL11       0.0618
     38 H          -2.7630    6.1329   -3.2437 H       1  UNL11       0.0618
     39 H          -2.2043    5.9071   -0.8474 H       1  UNL11       0.0647
     40 H          -0.4648    1.1191   -1.4813 H       1  UNL11       0.0645
@<TRIPOS>BOND
     1     1     2    2
     2     2     3   am
     3     2    10    1
     4     3     4    1
     5     3    27    1
     6     4     5   ar
     7     5     6   ar
     8     5    28    1
     9     6     7   ar
    10     6    29    1
    11     7     8   ar
    12     7    30    1
    13     8     9   ar
    14     8    31    1
    15     9     4   ar
    16    10    11   ar
    17    11    12   ar
    18    11    32    1
    19    12    13   ar
    20    12    33    1
    21    13    14   ar
    22    13    34    1
    23    14    15    1
    24    14    26   ar
    25    15    16    2
    26    15    17    2
    27    15    18    1
    28    18    19    1
    29    18    35    1
    30    19    20   ar
    31    20    21   ar
    32    20    36    1
    33    21    22   ar
    34    21    37    1
    35    22    23   ar
    36    22    38    1
    37    23    24   ar
    38    23    39    1
    39    24    25    1
    40    24    19   ar
    41    26    10   ar
    42    26    40    1
@<TRIPOS>MOLECULE
*****
 40 42 0 0 0
SMALL
GASTEIGER

@<TRIPOS>ATOM
      1 O          -2.7996   -0.8093    0.9005 O.2     1  UNL11      -0.2698
      2 C          -2.3062    0.0974    0.1863 C.2     1  UNL11       0.2494
      3 N          -3.0643    0.5148   -0.9330 N.am    1  UNL11      -0.2664
      4 C          -2.6128    1.5191   -1.8295 C.ar    1  UNL11       0.1251
      5 C          -3.1552    1.6117   -3.0869 C.ar    1  UNL11      -0.0215
      6 C          -2.6889    2.6075   -3.9377 C.ar    1  UNL11      -0.0571
      7 C          -1.7193    3.4608   -3.5200 C.ar    1  UNL11      -0.0435
      8 C          -1.1906    3.3488   -2.2553 C.ar    1  UNL11       0.0297
      9 N          -1.6616    2.3763   -1.4559 N.ar    1  UNL11      -0.2401
     10 C          -1.0143    0.6424    0.5555 C.ar    1  UNL11       0.0389
     11 C          -0.5883    0.6883    1.8768 C.ar    1  UNL11      -0.0495
     12 C           0.6454    1.2122    2.2002 C.ar    1  UNL11      -0.0592
     13 C           1.4720    1.6974    1.2150 C.ar    1  UNL11      -0.0350
     14 C           1.0604    1.6566   -0.0947 C.ar    1  UNL11       0.1092
     15 S           2.1127    2.2705   -1.3871 S.O2    1  UNL11       0.0724
     16 O           1.4162    2.0741   -2.7160 O.2     1  UNL11      -0.1500
     17 O           3.3451    1.4355   -1.4107 O.2     1  UNL11      -0.1500
     18 N           2.5024    3.9140   -1.1755 N.pl3   1  UNL11      -0.2135
     19 C           3.7028    4.5460   -1.5927 C.ar    1  UNL11       0.0831
     20 C           4.8052    4.6279   -0.7742 C.ar    1  UNL11      -0.0365
     21 C           5.9790    5.2544   -1.1790 C.ar    1  UNL11      -0.0598
     22 C           6.0814    5.8231   -2.4306 C.ar    1  UNL11      -0.0589
     23 C           4.9824    5.7471   -3.2594 C.ar    1  UNL11      -0.0246
     24 C           3.8215    5.1251   -2.8536 C.ar    1  UNL11       0.1456
     25 F           2.7487    5.0549   -3.6728 F       1  UNL11      -0.2035
     26 C          -0.1704    1.1343   -0.4196 C.ar    1  UNL11      -0.0230
     27 H          -4.0049    0.0602   -1.1086 H       1  UNL11       0.1566
     28 H          -3.9241    0.9059   -3.3661 H       1  UNL11       0.0652
     29 H          -3.1422    2.6581   -4.9399 H       1  UNL11       0.0619
     30 H          -1.3821    4.2299   -4.2232 H       1  UNL11       0.0633
     31 H          -0.4204    4.0473   -1.9610 H       1  UNL11       0.0830
     32 H          -1.2346    0.3046    2.6850 H       1  UNL11       0.0625
     33 H           0.9451    1.2299    3.2597 H       1  UNL11       0.0618
     34 H           2.4450    2.1117    1.5052 H       1  UNL11       0.0637
     35 H           1.7988    4.5535   -0.6867 H       1  UNL11       0.1738
     36 H           4.8113    4.2200    0.2122 H       1  UNL11       0.0637
     37 H           6.8394    5.3008   -0.4993 H       1  UNL11       0.0618
     38 H           7.0062    6.3140   -2.7437 H       1  UNL11       0.0618
     39 H           5.0486    6.1896   -4.2462 H       1  UNL11       0.0647
     40 H          -0.4648    1.1191   -1.4813 H       1  UNL11       0.0645
@<TRIPOS>BOND
     1     1     2    2
     2     2     3   am
     3     2    10    1
     4     3     4    1
     5     3    27    1
     6     4     5   ar
     7     5     6   ar
     8     5    28    1
     9     6     7   ar
    10     6    29    1
    11     7     8   ar
    12     7    30    1
    13     8     9   ar
    14     8    31    1
    15     9     4   ar
    16    10    11   ar
    17    11    12   ar
    18    11    32    1
    19    12    13   ar
    20    12    33    1
    21    13    14   ar
    22    13    34    1
    23    14    15    1
    24    14    26   ar
    25    15    16    2
    26    15    17    2
    27    15    18    1
    28    18    19    1
    29    18    35    1
    30    19    20   ar
    31    20    21   ar
    32    20    36    1
    33    21    22   ar
    34    21    37    1
    35    22    23   ar
    36    22    38    1
    37    23    24   ar
    38    23    39    1
    39    24    25    1
    40    24    19   ar
    41    26    10   ar
    42    26    40    1
@<TRIPOS>MOLECULE
*****
 40 42 0 0 0
SMALL
GASTEIGER

@<TRIPOS>ATOM
      1 O          -2.7996   -0.8093    0.9005 O.2     1  UNL11      -0.2698
      2 C          -2.3062    0.0974    0.1863 C.2     1  UNL11       0.2494
      3 N          -3.0643    0.5148   -0.9330 N.am    1  UNL11      -0.2664
      4 C          -2.6128    1.5191   -1.8295 C.ar    1  UNL11       0.1251
      5 C          -1.8635    1.1742   -2.9265 C.ar    1  UNL11      -0.0215
      6 C          -1.4389    2.1839   -3.7827 C.ar    1  UNL11      -0.0571
      7 C          -1.7658    3.4761   -3.5262 C.ar    1  UNL11      -0.0435
      8 C          -2.5178    3.7981   -2.4205 C.ar    1  UNL11       0.0297
      9 N          -2.9135    2.8002   -1.6115 N.ar    1  UNL11      -0.2401
     10 C          -1.0143    0.6424    0.5555 C.ar    1  UNL11       0.0389
     11 C          -0.5883    0.6883    1.8768 C.ar    1  UNL11      -0.0495
     12 C           0.6454    1.2122    2.2002 C.ar    1  UNL11      -0.0592
     13 C           1.4720    1.6974    1.2150 C.ar    1  UNL11      -0.0350
     14 C           1.0604    1.6566   -0.0947 C.ar    1  UNL11       0.1092
     15 S           2.1127    2.2705   -1.3871 S.O2    1  UNL11       0.0724
     16 O           1.8681    1.4587   -2.6404 O.2     1  UNL11      -0.1500
     17 O           3.5251    2.0334   -0.9802 O.2     1  UNL11      -0.1500
     18 N           1.8466    3.9214   -1.7060 N.pl3   1  UNL11      -0.2135
     19 C           0.9072    4.7563   -1.0467 C.ar    1  UNL11       0.0831
     20 C           1.2355    5.4737    0.0802 C.ar    1  UNL11      -0.0365
     21 C           0.3133    6.2855    0.7319 C.ar    1  UNL11      -0.0598
     22 C          -0.9791    6.4020    0.2666 C.ar    1  UNL11      -0.0589
     23 C          -1.3192    5.6874   -0.8621 C.ar    1  UNL11      -0.0246
     24 C          -0.4018    4.8843   -1.5044 C.ar    1  UNL11       0.1456
     25 F          -0.7437    4.1871   -2.6107 F       1  UNL11      -0.2035
     26 C          -0.1704    1.1343   -0.4196 C.ar    1  UNL11      -0.0230
     27 H          -4.0049    0.0602   -1.1086 H       1  UNL11       0.1566
     28 H          -1.6331    0.1301   -3.0814 H       1  UNL11       0.0652
     29 H          -0.8398    1.8778   -4.6544 H       1  UNL11       0.0619
     30 H          -1.4101    4.2389   -4.2273 H       1  UNL11       0.0633
     31 H          -2.7566    4.8383   -2.2515 H       1  UNL11       0.0830
     32 H          -1.2346    0.3046    2.6850 H       1  UNL11       0.0625
     33 H           0.9451    1.2299    3.2597 H       1  UNL11       0.0618
     34 H           2.4450    2.1117    1.5052 H       1  UNL11       0.0637
     35 H           2.4245    4.4007   -2.4671 H       1  UNL11       0.1738
     36 H           2.2111    5.4376    0.5117 H       1  UNL11       0.0637
     37 H           0.6105    6.8439    1.6288 H       1  UNL11       0.0618
     38 H          -1.6997    7.0415    0.7825 H       1  UNL11       0.0618
     39 H          -2.3316    5.7695   -1.2393 H       1  UNL11       0.0647
     40 H          -0.4648    1.1191   -1.4813 H       1  UNL11       0.0645
@<TRIPOS>BOND
     1     1     2    2
     2     2     3   am
     3     2    10    1
     4     3     4    1
     5     3    27    1
     6     4     5   ar
     7     5     6   ar
     8     5    28    1
     9     6     7   ar
    10     6    29    1
    11     7     8   ar
    12     7    30    1
    13     8     9   ar
    14     8    31    1
    15     9     4   ar
    16    10    11   ar
    17    11    12   ar
    18    11    32    1
    19    12    13   ar
    20    12    33    1
    21    13    14   ar
    22    13    34    1
    23    14    15    1
    24    14    26   ar
    25    15    16    2
    26    15    17    2
    27    15    18    1
    28    18    19    1
    29    18    35    1
    30    19    20   ar
    31    20    21   ar
    32    20    36    1
    33    21    22   ar
    34    21    37    1
    35    22    23   ar
    36    22    38    1
    37    23    24   ar
    38    23    39    1
    39    24    25    1
    40    24    19   ar
    41    26    10   ar
    42    26    40    1
@<TRIPOS>MOLECULE
*****
 40 42 0 0 0
SMALL
GASTEIGER

@<TRIPOS>ATOM
      1 O          -3.2485    0.1795    1.0115 O.2     1  UNL11      -0.2698
      2 C          -2.3062    0.0974    0.1863 C.2     1  UNL11       0.2494
      3 N          -2.5906   -0.5288   -1.0502 N.am    1  UNL11      -0.2664
      4 C          -3.8745   -1.0464   -1.3664 C.ar    1  UNL11       0.1251
      5 C          -4.8075   -0.2446   -1.9751 C.ar    1  UNL11      -0.0215
      6 C          -6.0539   -0.7852   -2.2702 C.ar    1  UNL11      -0.0571
      7 C          -6.3268   -2.0775   -1.9574 C.ar    1  UNL11      -0.0435
      8 C          -5.3760   -2.8622   -1.3474 C.ar    1  UNL11       0.0297
      9 N          -4.1805   -2.3114   -1.0748 N.ar    1  UNL11      -0.2401
     10 C          -1.0143    0.6424    0.5555 C.ar    1  UNL11       0.0389
     11 C          -0.5883    0.6883    1.8768 C.ar    1  UNL11      -0.0495
     12 C           0.6454    1.2122    2.2002 C.ar    1  UNL11      -0.0592
     13 C           1.4720    1.6974    1.2150 C.ar    1  UNL11      -0.0350
     14 C           1.0604    1.6566   -0.0947 C.ar    1  UNL11       0.1092
     15 S           2.1127    2.2705   -1.3871 S.O2    1  UNL11       0.0724
     16 O           1.8681    1.4587   -2.6404 O.2     1  UNL11      -0.1500
     17 O           3.5251    2.0334   -0.9802 O.2     1  UNL11      -0.1500
     18 N           1.8466    3.9214   -1.7060 N.pl3   1  UNL11      -0.2135
     19 C           0.9072    4.7563   -1.0467 C.ar    1  UNL11       0.0831
     20 C           1.2355    5.4737    0.0802 C.ar    1  UNL11      -0.0365
     21 C           0.3133    6.2855    0.7319 C.ar    1  UNL11      -0.0598
     22 C          -0.9791    6.4020    0.2666 C.ar    1  UNL11      -0.0589
     23 C          -1.3192    5.6874   -0.8621 C.ar    1  UNL11      -0.0246
     24 C          -0.4018    4.8843   -1.5044 C.ar    1  UNL11       0.1456
     25 F          -0.7437    4.1871   -2.6107 F       1  UNL11      -0.2035
     26 C          -0.1704    1.1343   -0.4196 C.ar    1  UNL11      -0.0230
     27 H          -1.8156   -0.6145   -1.7672 H       1  UNL11       0.1566
     28 H          -4.5358    0.7764   -2.2011 H       1  UNL11       0.0652
     29 H          -6.7821   -0.1190   -2.7585 H       1  UNL11       0.0619
     30 H          -7.3215   -2.4617   -2.2080 H       1  UNL11       0.0633
     31 H          -5.6324   -3.8858   -1.1147 H       1  UNL11       0.0830
     32 H          -1.2346    0.3046    2.6850 H       1  UNL11       0.0625
     33 H           0.9451    1.2299    3.2597 H       1  UNL11       0.0618
     34 H           2.4450    2.1117    1.5052 H       1  UNL11       0.0637
     35 H           2.4245    4.4007   -2.4671 H       1  UNL11       0.1738
     36 H           2.2111    5.4376    0.5117 H       1  UNL11       0.0637
     37 H           0.6105    6.8439    1.6288 H       1  UNL11       0.0618
     38 H          -1.6997    7.0415    0.7825 H       1  UNL11       0.0618
     39 H          -2.3316    5.7695   -1.2393 H       1  UNL11       0.0647
     40 H          -0.4648    1.1191   -1.4813 H       1  UNL11       0.0645
@<TRIPOS>BOND
     1     1     2    2
     2     2     3   am
     3     2    10    1
     4     3     4    1
     5     3    27    1
     6     4     5   ar
     7     5     6   ar
     8     5    28    1
     9     6     7   ar
    10     6    29    1
    11     7     8   ar
    12     7    30    1
    13     8     9   ar
    14     8    31    1
    15     9     4   ar
    16    10    11   ar
    17    11    12   ar
    18    11    32    1
    19    12    13   ar
    20    12    33    1
    21    13    14   ar
    22    13    34    1
    23    14    15    1
    24    14    26   ar
    25    15    16    2
    26    15    17    2
    27    15    18    1
    28    18    19    1
    29    18    35    1
    30    19    20   ar
    31    20    21   ar
    32    20    36    1
    33    21    22   ar
    34    21    37    1
    35    22    23   ar
    36    22    38    1
    37    23    24   ar
    38    23    39    1
    39    24    25    1
    40    24    19   ar
    41    26    10   ar
    42    26    40    1
@<TRIPOS>MOLECULE
*****
 40 42 0 0 0
SMALL
GASTEIGER

@<TRIPOS>ATOM
      1 O          -3.2485    0.1795    1.0115 O.2     1  UNL11      -0.2698
      2 C          -2.3062    0.0974    0.1863 C.2     1  UNL11       0.2494
      3 N          -2.5906   -0.5288   -1.0502 N.am    1  UNL11      -0.2664
      4 C          -1.6100   -0.7001   -2.0627 C.ar    1  UNL11       0.1251
      5 C          -1.4256    0.2737   -3.0122 C.ar    1  UNL11      -0.0215
      6 C          -0.4563    0.0720   -3.9882 C.ar    1  UNL11      -0.0571
      7 C           0.2826   -1.0667   -3.9888 C.ar    1  UNL11      -0.0435
      8 C           0.0801   -2.0288   -3.0271 C.ar    1  UNL11       0.0297
      9 N          -0.8640   -1.8053   -2.0968 N.ar    1  UNL11      -0.2401
     10 C          -1.0143    0.6424    0.5555 C.ar    1  UNL11       0.0389
     11 C          -0.5883    0.6883    1.8768 C.ar    1  UNL11      -0.0495
     12 C           0.6454    1.2122    2.2002 C.ar    1  UNL11      -0.0592
     13 C           1.4720    1.6974    1.2150 C.ar    1  UNL11      -0.0350
     14 C           1.0604    1.6566   -0.0947 C.ar    1  UNL11       0.1092
     15 S           2.1127    2.2705   -1.3871 S.O2    1  UNL11       0.0724
     16 O           3.4148    1.5002   -1.3613 O.2     1  UNL11      -0.1500
     17 O           2.4375    3.6904   -1.0786 O.2     1  UNL11      -0.1500
     18 N           1.3920    2.1373   -2.9236 N.pl3   1  UNL11      -0.2135
     19 C           1.6145    3.0031   -4.0260 C.ar    1  UNL11       0.0831
     20 C           0.8429    4.1214   -4.2410 C.ar    1  UNL11      -0.0365
     21 C           1.0547    4.9657   -5.3256 C.ar    1  UNL11      -0.0598
     22 C           2.0578    4.7092   -6.2358 C.ar    1  UNL11      -0.0589
     23 C           2.8373    3.5909   -6.0303 C.ar    1  UNL11      -0.0246
     24 C           2.6234    2.7573   -4.9539 C.ar    1  UNL11       0.1456
     25 F           3.3926    1.6630   -4.7597 F       1  UNL11      -0.2035
     26 C          -0.1704    1.1343   -0.4196 C.ar    1  UNL11      -0.0230
     27 H          -3.5731   -0.8833   -1.2268 H       1  UNL11       0.1566
     28 H          -2.0421    1.1596   -2.9634 H       1  UNL11       0.0652
     29 H          -0.3303    0.8698   -4.7366 H       1  UNL11       0.0619
     30 H           1.0350   -1.1836   -4.7763 H       1  UNL11       0.0633
     31 H           0.6888   -2.9210   -3.0623 H       1  UNL11       0.0830
     32 H          -1.2346    0.3046    2.6850 H       1  UNL11       0.0625
     33 H           0.9451    1.2299    3.2597 H       1  UNL11       0.0618
     34 H           2.4450    2.1117    1.5052 H       1  UNL11       0.0637
     35 H           0.7043    1.3390   -3.1047 H       1  UNL11       0.1738
     36 H           0.0417    4.3918   -3.5897 H       1  UNL11       0.0637
     37 H           0.4195    5.8496   -5.4658 H       1  UNL11       0.0618
     38 H           2.2200    5.3761   -7.0863 H       1  UNL11       0.0618
     39 H           3.6296    3.3769   -6.7376 H       1  UNL11       0.0647
     40 H          -0.4648    1.1191   -1.4813 H       1  UNL11       0.0645
@<TRIPOS>BOND
     1     1     2    2
     2     2     3   am
     3     2    10    1
     4     3     4    1
     5     3    27    1
     6     4     5   ar
     7     5     6   ar
     8     5    28    1
     9     6     7   ar
    10     6    29    1
    11     7     8   ar
    12     7    30    1
    13     8     9   ar
    14     8    31    1
    15     9     4   ar
    16    10    11   ar
    17    11    12   ar
    18    11    32    1
    19    12    13   ar
    20    12    33    1
    21    13    14   ar
    22    13    34    1
    23    14    15    1
    24    14    26   ar
    25    15    16    2
    26    15    17    2
    27    15    18    1
    28    18    19    1
    29    18    35    1
    30    19    20   ar
    31    20    21   ar
    32    20    36    1
    33    21    22   ar
    34    21    37    1
    35    22    23   ar
    36    22    38    1
    37    23    24   ar
    38    23    39    1
    39    24    25    1
    40    24    19   ar
    41    26    10   ar
    42    26    40    1
@<TRIPOS>MOLECULE
*****
 40 42 0 0 0
SMALL
GASTEIGER

@<TRIPOS>ATOM
      1 O          -2.7996   -0.8093    0.9005 O.2     1  UNL11      -0.2698
      2 C          -2.3062    0.0974    0.1863 C.2     1  UNL11       0.2494
      3 N          -3.0643    0.5148   -0.9330 N.am    1  UNL11      -0.2664
      4 C          -2.6128    1.5191   -1.8295 C.ar    1  UNL11       0.1251
      5 C          -2.9129    2.8372   -1.5920 C.ar    1  UNL11      -0.0215
      6 C          -2.4541    3.7934   -2.4909 C.ar    1  UNL11      -0.0571
      7 C          -1.7273    3.4165   -3.5736 C.ar    1  UNL11      -0.0435
      8 C          -1.4388    2.0894   -3.7912 C.ar    1  UNL11       0.0297
      9 N          -1.8961    1.1885   -2.9047 N.ar    1  UNL11      -0.2401
     10 C          -1.0143    0.6424    0.5555 C.ar    1  UNL11       0.0389
     11 C          -0.5883    0.6883    1.8768 C.ar    1  UNL11      -0.0495
     12 C           0.6454    1.2122    2.2002 C.ar    1  UNL11      -0.0592
     13 C           1.4720    1.6974    1.2150 C.ar    1  UNL11      -0.0350
     14 C           1.0604    1.6566   -0.0947 C.ar    1  UNL11       0.1092
     15 S           2.1127    2.2705   -1.3871 S.O2    1  UNL11       0.0724
     16 O           3.4148    1.5002   -1.3613 O.2     1  UNL11      -0.1500
     17 O           2.4375    3.6904   -1.0786 O.2     1  UNL11      -0.1500
     18 N           1.3920    2.1373   -2.9236 N.pl3   1  UNL11      -0.2135
     19 C           0.4534    1.1496   -3.3207 C.ar    1  UNL11       0.0831
     20 C           0.8454   -0.0439   -3.8812 C.ar    1  UNL11      -0.0365
     21 C          -0.0738   -1.0090   -4.2784 C.ar    1  UNL11      -0.0598
     22 C          -1.4278   -0.8018   -4.1231 C.ar    1  UNL11      -0.0589
     23 C          -1.8322    0.3910   -3.5626 C.ar    1  UNL11      -0.0246
     24 C          -0.9173    1.3441   -3.1705 C.ar    1  UNL11       0.1456
     25 F          -1.3225    2.5109   -2.6215 F       1  UNL11      -0.2035
     26 C          -0.1704    1.1343   -0.4196 C.ar    1  UNL11      -0.0230
     27 H          -4.0049    0.0602   -1.1086 H       1  UNL11       0.1566
     28 H          -3.4948    3.0798   -0.7146 H       1  UNL11       0.0652
     29 H          -2.7097    4.8424   -2.2749 H       1  UNL11       0.0619
     30 H          -1.3863    4.2031   -4.2554 H       1  UNL11       0.0633
     31 H          -0.8577    1.8305   -4.6647 H       1  UNL11       0.0830
     32 H          -1.2346    0.3046    2.6850 H       1  UNL11       0.0625
     33 H           0.9451    1.2299    3.2597 H       1  UNL11       0.0618
     34 H           2.4450    2.1117    1.5052 H       1  UNL11       0.0637
     35 H           1.6505    2.8480   -3.6793 H       1  UNL11       0.1738
     36 H           1.8727   -0.2845   -4.0432 H       1  UNL11       0.0637
     37 H           0.2751   -1.9502   -4.7220 H       1  UNL11       0.0618
     38 H          -2.1459   -1.5636   -4.4369 H       1  UNL11       0.0618
     39 H          -2.8934    0.5674   -3.4343 H       1  UNL11       0.0647
     40 H          -0.4648    1.1191   -1.4813 H       1  UNL11       0.0645
@<TRIPOS>BOND
     1     1     2    2
     2     2     3   am
     3     2    10    1
     4     3     4    1
     5     3    27    1
     6     4     5   ar
     7     5     6   ar
     8     5    28    1
     9     6     7   ar
    10     6    29    1
    11     7     8   ar
    12     7    30    1
    13     8     9   ar
    14     8    31    1
    15     9     4   ar
    16    10    11   ar
    17    11    12   ar
    18    11    32    1
    19    12    13   ar
    20    12    33    1
    21    13    14   ar
    22    13    34    1
    23    14    15    1
    24    14    26   ar
    25    15    16    2
    26    15    17    2
    27    15    18    1
    28    18    19    1
    29    18    35    1
    30    19    20   ar
    31    20    21   ar
    32    20    36    1
    33    21    22   ar
    34    21    37    1
    35    22    23   ar
    36    22    38    1
    37    23    24   ar
    38    23    39    1
    39    24    25    1
    40    24    19   ar
    41    26    10   ar
    42    26    40    1
@<TRIPOS>MOLECULE
*****
 40 42 0 0 0
SMALL
GASTEIGER

@<TRIPOS>ATOM
      1 O          -2.7996   -0.8093    0.9005 O.2     1  UNL11      -0.2698
      2 C          -2.3062    0.0974    0.1863 C.2     1  UNL11       0.2494
      3 N          -3.0643    0.5148   -0.9330 N.am    1  UNL11      -0.2664
      4 C          -2.6128    1.5191   -1.8295 C.ar    1  UNL11       0.1251
      5 C          -2.3503    2.7846   -1.3675 C.ar    1  UNL11      -0.0215
      6 C          -1.9096    3.7424   -2.2738 C.ar    1  UNL11      -0.0571
      7 C          -1.7475    3.4182   -3.5819 C.ar    1  UNL11      -0.0435
      8 C          -2.0168    2.1433   -4.0220 C.ar    1  UNL11       0.0297
      9 N          -2.4414    1.2394   -3.1223 N.ar    1  UNL11      -0.2401
     10 C          -1.0143    0.6424    0.5555 C.ar    1  UNL11       0.0389
     11 C          -0.5883    0.6883    1.8768 C.ar    1  UNL11      -0.0495
     12 C           0.6454    1.2122    2.2002 C.ar    1  UNL11      -0.0592
     13 C           1.4720    1.6974    1.2150 C.ar    1  UNL11      -0.0350
     14 C           1.0604    1.6566   -0.0947 C.ar    1  UNL11       0.1092
     15 S           2.1127    2.2705   -1.3871 S.O2    1  UNL11       0.0724
     16 O           1.4162    2.0741   -2.7160 O.2     1  UNL11      -0.1500
     17 O           3.3451    1.4355   -1.4107 O.2     1  UNL11      -0.1500
     18 N           2.5024    3.9140   -1.1755 N.pl3   1  UNL11      -0.2135
     19 C           3.3096    4.6970   -2.0413 C.ar    1  UNL11       0.0831
     20 C           2.7750    5.4077   -3.0908 C.ar    1  UNL11      -0.0365
     21 C           3.5661    6.1684   -3.9449 C.ar    1  UNL11      -0.0598
     22 C           4.9316    6.2385   -3.7687 C.ar    1  UNL11      -0.0589
     23 C           5.4783    5.5300   -2.7201 C.ar    1  UNL11      -0.0246
     24 C           4.6901    4.7777   -1.8764 C.ar    1  UNL11       0.1456
     25 F           5.2344    4.0862   -0.8505 F       1  UNL11      -0.2035
     26 C          -0.1704    1.1343   -0.4196 C.ar    1  UNL11      -0.0230
     27 H          -4.0049    0.0602   -1.1086 H       1  UNL11       0.1566
     28 H          -2.4969    2.9866   -0.3163 H       1  UNL11       0.0652
     29 H          -1.7067    4.7485   -1.8750 H       1  UNL11       0.0619
     30 H          -1.3984    4.2040   -4.2605 H       1  UNL11       0.0633
     31 H          -1.8753    1.9254   -5.0709 H       1  UNL11       0.0830
     32 H          -1.2346    0.3046    2.6850 H       1  UNL11       0.0625
     33 H           0.9451    1.2299    3.2597 H       1  UNL11       0.0618
     34 H           2.4450    2.1117    1.5052 H       1  UNL11       0.0637
     35 H           2.1191    4.4305   -0.3215 H       1  UNL11       0.1738
     36 H           1.7290    5.4052   -3.3034 H       1  UNL11       0.0637
     37 H           3.1051    6.7230   -4.7722 H       1  UNL11       0.0618
     38 H           5.5486    6.8379   -4.4428 H       1  UNL11       0.0618
     39 H           6.5503    5.5760   -2.5695 H       1  UNL11       0.0647
     40 H          -0.4648    1.1191   -1.4813 H       1  UNL11       0.0645
@<TRIPOS>BOND
     1     1     2    2
     2     2     3   am
     3     2    10    1
     4     3     4    1
     5     3    27    1
     6     4     5   ar
     7     5     6   ar
     8     5    28    1
     9     6     7   ar
    10     6    29    1
    11     7     8   ar
    12     7    30    1
    13     8     9   ar
    14     8    31    1
    15     9     4   ar
    16    10    11   ar
    17    11    12   ar
    18    11    32    1
    19    12    13   ar
    20    12    33    1
    21    13    14   ar
    22    13    34    1
    23    14    15    1
    24    14    26   ar
    25    15    16    2
    26    15    17    2
    27    15    18    1
    28    18    19    1
    29    18    35    1
    30    19    20   ar
    31    20    21   ar
    32    20    36    1
    33    21    22   ar
    34    21    37    1
    35    22    23   ar
    36    22    38    1
    37    23    24   ar
    38    23    39    1
    39    24    25    1
    40    24    19   ar
    41    26    10   ar
    42    26    40    1
@<TRIPOS>MOLECULE
*****
 40 42 0 0 0
SMALL
GASTEIGER

@<TRIPOS>ATOM
      1 O          -2.8856    0.5634   -0.8250 O.2     1  UNL11      -0.2698
      2 C          -2.3062    0.0974    0.1863 C.2     1  UNL11       0.2494
      3 N          -2.9736   -0.9340    0.8882 N.am    1  UNL11      -0.2664
      4 C          -2.4350   -1.5349    2.0565 C.ar    1  UNL11       0.1251
      5 C          -2.7194   -1.0099    3.2925 C.ar    1  UNL11      -0.0215
      6 C          -2.1749   -1.6245    4.4144 C.ar    1  UNL11      -0.0571
      7 C          -1.3822   -2.7175    4.2744 C.ar    1  UNL11      -0.0435
      8 C          -1.1110   -3.2260    3.0256 C.ar    1  UNL11       0.0297
      9 N          -1.6518   -2.6102    1.9602 N.ar    1  UNL11      -0.2401
     10 C          -1.0143    0.6424    0.5555 C.ar    1  UNL11       0.0389
     11 C          -0.5883    0.6883    1.8768 C.ar    1  UNL11      -0.0495
     12 C           0.6454    1.2122    2.2002 C.ar    1  UNL11      -0.0592
     13 C           1.4720    1.6974    1.2150 C.ar    1  UNL11      -0.0350
     14 C           1.0604    1.6566   -0.0947 C.ar    1  UNL11       0.1092
     15 S           2.1127    2.2705   -1.3871 S.O2    1  UNL11       0.0724
     16 O           2.4444    1.1316   -2.3265 O.2     1  UNL11      -0.1500
     17 O           3.3915    2.7128   -0.7661 O.2     1  UNL11      -0.1500
     18 N           1.3917    3.5452   -2.2550 N.pl3   1  UNL11      -0.2135
     19 C           2.0770    4.6182   -2.8822 C.ar    1  UNL11       0.0831
     20 C           2.3436    5.7961   -2.2236 C.ar    1  UNL11      -0.0365
     21 C           3.0075    6.8513   -2.8399 C.ar    1  UNL11      -0.0598
     22 C           3.4274    6.7540   -4.1493 C.ar    1  UNL11      -0.0589
     23 C           3.1653    5.5780   -4.8193 C.ar    1  UNL11      -0.0246
     24 C           2.5071    4.5352   -4.2041 C.ar    1  UNL11       0.1456
     25 F           2.2544    3.3854   -4.8683 F       1  UNL11      -0.2035
     26 C          -0.1704    1.1343   -0.4196 C.ar    1  UNL11      -0.0230
     27 H          -3.9112   -1.2705    0.5278 H       1  UNL11       0.1566
     28 H          -3.3561   -0.1386    3.3445 H       1  UNL11       0.0652
     29 H          -2.4202   -1.1820    5.3923 H       1  UNL11       0.0619
     30 H          -0.9747   -3.1694    5.1853 H       1  UNL11       0.0633
     31 H          -0.4756   -4.0972    2.9568 H       1  UNL11       0.0830
     32 H          -1.2346    0.3046    2.6850 H       1  UNL11       0.0625
     33 H           0.9451    1.2299    3.2597 H       1  UNL11       0.0618
     34 H           2.4450    2.1117    1.5052 H       1  UNL11       0.0637
     35 H           0.3274    3.5667   -2.3534 H       1  UNL11       0.1738
     36 H           2.0493    5.9591   -1.2106 H       1  UNL11       0.0637
     37 H           3.2036    7.7768   -2.2835 H       1  UNL11       0.0618
     38 H           3.9488    7.5863   -4.6288 H       1  UNL11       0.0618
     39 H           3.4897    5.4873   -5.8490 H       1  UNL11       0.0647
     40 H          -0.4648    1.1191   -1.4813 H       1  UNL11       0.0645
@<TRIPOS>BOND
     1     1     2    2
     2     2     3   am
     3     2    10    1
     4     3     4    1
     5     3    27    1
     6     4     5   ar
     7     5     6   ar
     8     5    28    1
     9     6     7   ar
    10     6    29    1
    11     7     8   ar
    12     7    30    1
    13     8     9   ar
    14     8    31    1
    15     9     4   ar
    16    10    11   ar
    17    11    12   ar
    18    11    32    1
    19    12    13   ar
    20    12    33    1
    21    13    14   ar
    22    13    34    1
    23    14    15    1
    24    14    26   ar
    25    15    16    2
    26    15    17    2
    27    15    18    1
    28    18    19    1
    29    18    35    1
    30    19    20   ar
    31    20    21   ar
    32    20    36    1
    33    21    22   ar
    34    21    37    1
    35    22    23   ar
    36    22    38    1
    37    23    24   ar
    38    23    39    1
    39    24    25    1
    40    24    19   ar
    41    26    10   ar
    42    26    40    1
@<TRIPOS>MOLECULE
*****
 40 42 0 0 0
SMALL
GASTEIGER

@<TRIPOS>ATOM
      1 O          -2.7996   -0.8093    0.9005 O.2     1  UNL11      -0.2698
      2 C          -2.3062    0.0974    0.1863 C.2     1  UNL11       0.2494
      3 N          -3.0643    0.5148   -0.9330 N.am    1  UNL11      -0.2664
      4 C          -2.6128    1.5191   -1.8295 C.ar    1  UNL11       0.1251
      5 C          -2.9129    2.8372   -1.5920 C.ar    1  UNL11      -0.0215
      6 C          -2.4541    3.7934   -2.4909 C.ar    1  UNL11      -0.0571
      7 C          -1.7273    3.4165   -3.5736 C.ar    1  UNL11      -0.0435
      8 C          -1.4388    2.0894   -3.7912 C.ar    1  UNL11       0.0297
      9 N          -1.8961    1.1885   -2.9047 N.ar    1  UNL11      -0.2401
     10 C          -1.0143    0.6424    0.5555 C.ar    1  UNL11       0.0389
     11 C          -0.5883    0.6883    1.8768 C.ar    1  UNL11      -0.0495
     12 C           0.6454    1.2122    2.2002 C.ar    1  UNL11      -0.0592
     13 C           1.4720    1.6974    1.2150 C.ar    1  UNL11      -0.0350
     14 C           1.0604    1.6566   -0.0947 C.ar    1  UNL11       0.1092
     15 S           2.1127    2.2705   -1.3871 S.O2    1  UNL11       0.0724
     16 O           2.4444    1.1316   -2.3265 O.2     1  UNL11      -0.1500
     17 O           3.3915    2.7128   -0.7661 O.2     1  UNL11      -0.1500
     18 N           1.3917    3.5452   -2.2550 N.pl3   1  UNL11      -0.2135
     19 C           1.1100    3.5513   -3.6460 C.ar    1  UNL11       0.0831
     20 C          -0.0920    3.1086   -4.1474 C.ar    1  UNL11      -0.0365
     21 C          -0.3660    3.1063   -5.5109 C.ar    1  UNL11      -0.0598
     22 C           0.5687    3.5528   -6.4205 C.ar    1  UNL11      -0.0589
     23 C           1.7772    3.9986   -5.9291 C.ar    1  UNL11      -0.0246
     24 C           2.0438    3.9990   -4.5770 C.ar    1  UNL11       0.1456
     25 F           3.2312    4.4381   -4.1038 F       1  UNL11      -0.2035
     26 C          -0.1704    1.1343   -0.4196 C.ar    1  UNL11      -0.0230
     27 H          -4.0049    0.0602   -1.1086 H       1  UNL11       0.1566
     28 H          -3.4948    3.0798   -0.7146 H       1  UNL11       0.0652
     29 H          -2.7097    4.8424   -2.2749 H       1  UNL11       0.0619
     30 H          -1.3863    4.2031   -4.2554 H       1  UNL11       0.0633
     31 H          -0.8577    1.8305   -4.6647 H       1  UNL11       0.0830
     32 H          -1.2346    0.3046    2.6850 H       1  UNL11       0.0625
     33 H           0.9451    1.2299    3.2597 H       1  UNL11       0.0618
     34 H           2.4450    2.1117    1.5052 H       1  UNL11       0.0637
     35 H           1.1153    4.4356   -1.7318 H       1  UNL11       0.1738
     36 H          -0.8696    2.7408   -3.5155 H       1  UNL11       0.0637
     37 H          -1.3364    2.7460   -5.8755 H       1  UNL11       0.0618
     38 H           0.3482    3.5489   -7.4909 H       1  UNL11       0.0618
     39 H           2.5213    4.3526   -6.6325 H       1  UNL11       0.0647
     40 H          -0.4648    1.1191   -1.4813 H       1  UNL11       0.0645
@<TRIPOS>BOND
     1     1     2    2
     2     2     3   am
     3     2    10    1
     4     3     4    1
     5     3    27    1
     6     4     5   ar
     7     5     6   ar
     8     5    28    1
     9     6     7   ar
    10     6    29    1
    11     7     8   ar
    12     7    30    1
    13     8     9   ar
    14     8    31    1
    15     9     4   ar
    16    10    11   ar
    17    11    12   ar
    18    11    32    1
    19    12    13   ar
    20    12    33    1
    21    13    14   ar
    22    13    34    1
    23    14    15    1
    24    14    26   ar
    25    15    16    2
    26    15    17    2
    27    15    18    1
    28    18    19    1
    29    18    35    1
    30    19    20   ar
    31    20    21   ar
    32    20    36    1
    33    21    22   ar
    34    21    37    1
    35    22    23   ar
    36    22    38    1
    37    23    24   ar
    38    23    39    1
    39    24    25    1
    40    24    19   ar
    41    26    10   ar
    42    26    40    1
@<TRIPOS>MOLECULE
*****
 40 42 0 0 0
SMALL
GASTEIGER

@<TRIPOS>ATOM
      1 O          -2.6217    0.0756   -1.0284 O.2     1  UNL11      -0.2698
      2 C          -2.3062    0.0974    0.1863 C.2     1  UNL11       0.2494
      3 N          -3.2522   -0.4191    1.1029 N.am    1  UNL11      -0.2664
      4 C          -4.5057   -0.9444    0.6918 C.ar    1  UNL11       0.1251
      5 C          -5.5968   -0.1180    0.5898 C.ar    1  UNL11      -0.0215
      6 C          -6.8079   -0.6669    0.1841 C.ar    1  UNL11      -0.0571
      7 C          -6.8935   -1.9913   -0.1010 C.ar    1  UNL11      -0.0435
      8 C          -5.7866   -2.8003    0.0083 C.ar    1  UNL11       0.0297
      9 N          -4.6299   -2.2406    0.4029 N.ar    1  UNL11      -0.2401
     10 C          -1.0143    0.6424    0.5555 C.ar    1  UNL11       0.0389
     11 C          -0.5883    0.6883    1.8768 C.ar    1  UNL11      -0.0495
     12 C           0.6454    1.2122    2.2002 C.ar    1  UNL11      -0.0592
     13 C           1.4720    1.6974    1.2150 C.ar    1  UNL11      -0.0350
     14 C           1.0604    1.6566   -0.0947 C.ar    1  UNL11       0.1092
     15 S           2.1127    2.2705   -1.3871 S.O2    1  UNL11       0.0724
     16 O           2.9463    3.4072   -0.8369 O.2     1  UNL11      -0.1500
     17 O           1.2444    2.8404   -2.4538 O.2     1  UNL11      -0.1500
     18 N           3.1296    1.0609   -2.0201 N.pl3   1  UNL11      -0.2135
     19 C           3.6145    0.9932   -3.3522 C.ar    1  UNL11       0.0831
     20 C           2.9310    0.3274   -4.3430 C.ar    1  UNL11      -0.0365
     21 C           3.4095    0.2533   -5.6467 C.ar    1  UNL11      -0.0598
     22 C           4.6008    0.8517   -5.9976 C.ar    1  UNL11      -0.0589
     23 C           5.2944    1.5217   -5.0125 C.ar    1  UNL11      -0.0246
     24 C           4.8160    1.5923   -3.7220 C.ar    1  UNL11       0.1456
     25 F           5.5024    2.2516   -2.7622 F       1  UNL11      -0.2035
     26 C          -0.1704    1.1343   -0.4196 C.ar    1  UNL11      -0.0230
     27 H          -3.0158   -0.4134    2.1355 H       1  UNL11       0.1566
     28 H          -5.4709    0.9280    0.8293 H       1  UNL11       0.0652
     29 H          -7.6657    0.0196    0.1111 H       1  UNL11       0.0619
     30 H          -7.8673   -2.3810   -0.4169 H       1  UNL11       0.0633
     31 H          -5.8962   -3.8490   -0.2276 H       1  UNL11       0.0830
     32 H          -1.2346    0.3046    2.6850 H       1  UNL11       0.0625
     33 H           0.9451    1.2299    3.2597 H       1  UNL11       0.0618
     34 H           2.4450    2.1117    1.5052 H       1  UNL11       0.0637
     35 H           3.4485    0.2663   -1.3798 H       1  UNL11       0.1738
     36 H           2.0042   -0.1688   -4.1581 H       1  UNL11       0.0637
     37 H           2.8372   -0.2865   -6.4119 H       1  UNL11       0.0618
     38 H           4.9721    0.7905   -7.0236 H       1  UNL11       0.0618
     39 H           6.2323    1.9970   -5.2739 H       1  UNL11       0.0647
     40 H          -0.4648    1.1191   -1.4813 H       1  UNL11       0.0645
@<TRIPOS>BOND
     1     1     2    2
     2     2     3   am
     3     2    10    1
     4     3     4    1
     5     3    27    1
     6     4     5   ar
     7     5     6   ar
     8     5    28    1
     9     6     7   ar
    10     6    29    1
    11     7     8   ar
    12     7    30    1
    13     8     9   ar
    14     8    31    1
    15     9     4   ar
    16    10    11   ar
    17    11    12   ar
    18    11    32    1
    19    12    13   ar
    20    12    33    1
    21    13    14   ar
    22    13    34    1
    23    14    15    1
    24    14    26   ar
    25    15    16    2
    26    15    17    2
    27    15    18    1
    28    18    19    1
    29    18    35    1
    30    19    20   ar
    31    20    21   ar
    32    20    36    1
    33    21    22   ar
    34    21    37    1
    35    22    23   ar
    36    22    38    1
    37    23    24   ar
    38    23    39    1
    39    24    25    1
    40    24    19   ar
    41    26    10   ar
    42    26    40    1
@<TRIPOS>MOLECULE
*****
 40 42 0 0 0
SMALL
GASTEIGER

@<TRIPOS>ATOM
      1 O          -3.2485    0.1795    1.0115 O.2     1  UNL11      -0.2698
      2 C          -2.3062    0.0974    0.1863 C.2     1  UNL11       0.2494
      3 N          -2.5906   -0.5288   -1.0502 N.am    1  UNL11      -0.2664
      4 C          -1.6100   -0.7001   -2.0627 C.ar    1  UNL11       0.1251
      5 C          -0.9875    0.3947   -2.6084 C.ar    1  UNL11      -0.0215
      6 C          -0.0323    0.1890   -3.5974 C.ar    1  UNL11      -0.0571
      7 C           0.2669   -1.0713   -4.0033 C.ar    1  UNL11      -0.0435
      8 C          -0.3700   -2.1534   -3.4420 C.ar    1  UNL11       0.0297
      9 N          -1.2887   -1.9227   -2.4882 N.ar    1  UNL11      -0.2401
     10 C          -1.0143    0.6424    0.5555 C.ar    1  UNL11       0.0389
     11 C          -0.5883    0.6883    1.8768 C.ar    1  UNL11      -0.0495
     12 C           0.6454    1.2122    2.2002 C.ar    1  UNL11      -0.0592
     13 C           1.4720    1.6974    1.2150 C.ar    1  UNL11      -0.0350
     14 C           1.0604    1.6566   -0.0947 C.ar    1  UNL11       0.1092
     15 S           2.1127    2.2705   -1.3871 S.O2    1  UNL11       0.0724
     16 O           1.8681    1.4587   -2.6404 O.2     1  UNL11      -0.1500
     17 O           3.5251    2.0334   -0.9802 O.2     1  UNL11      -0.1500
     18 N           1.8466    3.9214   -1.7060 N.pl3   1  UNL11      -0.2135
     19 C           2.8168    4.8469   -2.1712 C.ar    1  UNL11       0.0831
     20 C           3.5918    5.5855   -1.3074 C.ar    1  UNL11      -0.0365
     21 C           4.5367    6.4988   -1.7622 C.ar    1  UNL11      -0.0598
     22 C           4.7333    6.6997   -3.1118 C.ar    1  UNL11      -0.0589
     23 C           3.9619    5.9650   -3.9868 C.ar    1  UNL11      -0.0246
     24 C           3.0268    5.0611   -3.5311 C.ar    1  UNL11       0.1456
     25 F           2.2748    4.3446   -4.3960 F       1  UNL11      -0.2035
     26 C          -0.1704    1.1343   -0.4196 C.ar    1  UNL11      -0.0230
     27 H          -3.5731   -0.8833   -1.2268 H       1  UNL11       0.1566
     28 H          -1.2650    1.3744   -2.2471 H       1  UNL11       0.0652
     29 H           0.4507    1.0854   -4.0166 H       1  UNL11       0.0619
     30 H           1.0255   -1.1865   -4.7849 H       1  UNL11       0.0633
     31 H          -0.1036   -3.1401   -3.7927 H       1  UNL11       0.0830
     32 H          -1.2346    0.3046    2.6850 H       1  UNL11       0.0625
     33 H           0.9451    1.2299    3.2597 H       1  UNL11       0.0618
     34 H           2.4450    2.1117    1.5052 H       1  UNL11       0.0637
     35 H           0.8697    4.3271   -1.5506 H       1  UNL11       0.1738
     36 H           3.5015    5.4974   -0.2475 H       1  UNL11       0.0637
     37 H           5.1378    7.0709   -1.0439 H       1  UNL11       0.0618
     38 H           5.4774    7.4186   -3.4638 H       1  UNL11       0.0618
     39 H           4.1058    6.1124   -5.0505 H       1  UNL11       0.0647
     40 H          -0.4648    1.1191   -1.4813 H       1  UNL11       0.0645
@<TRIPOS>BOND
     1     1     2    2
     2     2     3   am
     3     2    10    1
     4     3     4    1
     5     3    27    1
     6     4     5   ar
     7     5     6   ar
     8     5    28    1
     9     6     7   ar
    10     6    29    1
    11     7     8   ar
    12     7    30    1
    13     8     9   ar
    14     8    31    1
    15     9     4   ar
    16    10    11   ar
    17    11    12   ar
    18    11    32    1
    19    12    13   ar
    20    12    33    1
    21    13    14   ar
    22    13    34    1
    23    14    15    1
    24    14    26   ar
    25    15    16    2
    26    15    17    2
    27    15    18    1
    28    18    19    1
    29    18    35    1
    30    19    20   ar
    31    20    21   ar
    32    20    36    1
    33    21    22   ar
    34    21    37    1
    35    22    23   ar
    36    22    38    1
    37    23    24   ar
    38    23    39    1
    39    24    25    1
    40    24    19   ar
    41    26    10   ar
    42    26    40    1
@<TRIPOS>MOLECULE
*****
 40 42 0 0 0
SMALL
GASTEIGER

@<TRIPOS>ATOM
      1 O          -2.7996   -0.8093    0.9005 O.2     1  UNL11      -0.2698
      2 C          -2.3062    0.0974    0.1863 C.2     1  UNL11       0.2494
      3 N          -3.0643    0.5148   -0.9330 N.am    1  UNL11      -0.2664
      4 C          -4.3275   -0.0493   -1.2529 C.ar    1  UNL11       0.1251
      5 C          -4.4337   -1.3926   -1.5141 C.ar    1  UNL11      -0.0215
      6 C          -5.6863   -1.9103   -1.8235 C.ar    1  UNL11      -0.0571
      7 C          -6.7698   -1.0934   -1.8625 C.ar    1  UNL11      -0.0435
      8 C          -6.6392    0.2498   -1.5972 C.ar    1  UNL11       0.0297
      9 N          -5.4155    0.7207   -1.3013 N.ar    1  UNL11      -0.2401
     10 C          -1.0143    0.6424    0.5555 C.ar    1  UNL11       0.0389
     11 C          -0.5883    0.6883    1.8768 C.ar    1  UNL11      -0.0495
     12 C           0.6454    1.2122    2.2002 C.ar    1  UNL11      -0.0592
     13 C           1.4720    1.6974    1.2150 C.ar    1  UNL11      -0.0350
     14 C           1.0604    1.6566   -0.0947 C.ar    1  UNL11       0.1092
     15 S           2.1127    2.2705   -1.3871 S.O2    1  UNL11       0.0724
     16 O           2.3717    3.7417   -1.1459 O.2     1  UNL11      -0.1500
     17 O           1.3709    2.1613   -2.6734 O.2     1  UNL11      -0.1500
     18 N           3.5901    1.4289   -1.4703 N.pl3   1  UNL11      -0.2135
     19 C           4.7827    1.7693   -0.7803 C.ar    1  UNL11       0.0831
     20 C           5.0685    1.2710    0.4696 C.ar    1  UNL11      -0.0365
     21 C           6.2328    1.6106    1.1501 C.ar    1  UNL11      -0.0598
     22 C           7.1540    2.4696    0.5899 C.ar    1  UNL11      -0.0589
     23 C           6.8779    2.9753   -0.6625 C.ar    1  UNL11      -0.0246
     24 C           5.7227    2.6357   -1.3328 C.ar    1  UNL11       0.1456
     25 F           5.4599    3.1360   -2.5606 F       1  UNL11      -0.2035
     26 C          -0.1704    1.1343   -0.4196 C.ar    1  UNL11      -0.0230
     27 H          -2.6741    1.2775   -1.5561 H       1  UNL11       0.1566
     28 H          -3.5382   -1.9953   -1.4687 H       1  UNL11       0.0652
     29 H          -5.7414   -2.9908   -2.0281 H       1  UNL11       0.0619
     30 H          -7.7369   -1.5439   -2.1106 H       1  UNL11       0.0633
     31 H          -7.5258    0.8662   -1.6387 H       1  UNL11       0.0830
     32 H          -1.2346    0.3046    2.6850 H       1  UNL11       0.0625
     33 H           0.9451    1.2299    3.2597 H       1  UNL11       0.0618
     34 H           2.4450    2.1117    1.5052 H       1  UNL11       0.0637
     35 H           3.6565    0.5609   -2.0909 H       1  UNL11       0.1738
     36 H           4.4085    0.6048    0.9794 H       1  UNL11       0.0637
     37 H           6.4282    1.1936    2.1463 H       1  UNL11       0.0618
     38 H           8.0674    2.7331    1.1290 H       1  UNL11       0.0618
     39 H           7.5931    3.6516   -1.1152 H       1  UNL11       0.0647
     40 H          -0.4648    1.1191   -1.4813 H       1  UNL11       0.0645
@<TRIPOS>BOND
     1     1     2    2
     2     2     3   am
     3     2    10    1
     4     3     4    1
     5     3    27    1
     6     4     5   ar
     7     5     6   ar
     8     5    28    1
     9     6     7   ar
    10     6    29    1
    11     7     8   ar
    12     7    30    1
    13     8     9   ar
    14     8    31    1
    15     9     4   ar
    16    10    11   ar
    17    11    12   ar
    18    11    32    1
    19    12    13   ar
    20    12    33    1
    21    13    14   ar
    22    13    34    1
    23    14    15    1
    24    14    26   ar
    25    15    16    2
    26    15    17    2
    27    15    18    1
    28    18    19    1
    29    18    35    1
    30    19    20   ar
    31    20    21   ar
    32    20    36    1
    33    21    22   ar
    34    21    37    1
    35    22    23   ar
    36    22    38    1
    37    23    24   ar
    38    23    39    1
    39    24    25    1
    40    24    19   ar
    41    26    10   ar
    42    26    40    1
@<TRIPOS>MOLECULE
*****
 40 42 0 0 0
SMALL
GASTEIGER

@<TRIPOS>ATOM
      1 O          -2.6217    0.0756   -1.0284 O.2     1  UNL11      -0.2698
      2 C          -2.3062    0.0974    0.1863 C.2     1  UNL11       0.2494
      3 N          -3.2522   -0.4191    1.1029 N.am    1  UNL11      -0.2664
      4 C          -3.0259   -0.4378    2.5046 C.ar    1  UNL11       0.1251
      5 C          -3.4071    0.6313    3.2763 C.ar    1  UNL11      -0.0215
      6 C          -3.1700    0.5781    4.6452 C.ar    1  UNL11      -0.0571
      7 C          -2.5743   -0.5127    5.1909 C.ar    1  UNL11      -0.0435
      8 C          -2.2007   -1.5723    4.3977 C.ar    1  UNL11       0.0297
      9 N          -2.4431   -1.4916    3.0780 N.ar    1  UNL11      -0.2401
     10 C          -1.0143    0.6424    0.5555 C.ar    1  UNL11       0.0389
     11 C          -0.5883    0.6883    1.8768 C.ar    1  UNL11      -0.0495
     12 C           0.6454    1.2122    2.2002 C.ar    1  UNL11      -0.0592
     13 C           1.4720    1.6974    1.2150 C.ar    1  UNL11      -0.0350
     14 C           1.0604    1.6566   -0.0947 C.ar    1  UNL11       0.1092
     15 S           2.1127    2.2705   -1.3871 S.O2    1  UNL11       0.0724
     16 O           3.4148    1.5002   -1.3613 O.2     1  UNL11      -0.1500
     17 O           2.4375    3.6904   -1.0786 O.2     1  UNL11      -0.1500
     18 N           1.3920    2.1373   -2.9236 N.pl3   1  UNL11      -0.2135
     19 C           1.9033    1.3989   -4.0224 C.ar    1  UNL11       0.0831
     20 C           1.5705    0.0807   -4.2321 C.ar    1  UNL11      -0.0365
     21 C           2.0777   -0.6462   -5.3037 C.ar    1  UNL11      -0.0598
     22 C           2.9431   -0.0650   -6.2057 C.ar    1  UNL11      -0.0589
     23 C           3.2838    1.2557   -6.0052 C.ar    1  UNL11      -0.0246
     24 C           2.7785    1.9718   -4.9418 C.ar    1  UNL11       0.1456
     25 F           3.1176    3.2665   -4.7528 F       1  UNL11      -0.2035
     26 C          -0.1704    1.1343   -0.4196 C.ar    1  UNL11      -0.0230
     27 H          -4.1643   -0.8066    0.7286 H       1  UNL11       0.1566
     28 H          -3.8771    1.4730    2.7886 H       1  UNL11       0.0652
     29 H          -3.4865    1.4496    5.2391 H       1  UNL11       0.0619
     30 H          -2.4069   -0.5117    6.2735 H       1  UNL11       0.0633
     31 H          -1.7292   -2.4219    4.8705 H       1  UNL11       0.0830
     32 H          -1.2346    0.3046    2.6850 H       1  UNL11       0.0625
     33 H           0.9451    1.2299    3.2597 H       1  UNL11       0.0618
     34 H           2.4450    2.1117    1.5052 H       1  UNL11       0.0637
     35 H           0.4696    2.6455   -3.1078 H       1  UNL11       0.1738
     36 H           0.9120   -0.4489   -3.5800 H       1  UNL11       0.0637
     37 H           1.7900   -1.6965   -5.4401 H       1  UNL11       0.0618
     38 H           3.3387   -0.6409   -7.0462 H       1  UNL11       0.0618
     39 H           3.9631    1.7256   -6.7064 H       1  UNL11       0.0647
     40 H          -0.4648    1.1191   -1.4813 H       1  UNL11       0.0645
@<TRIPOS>BOND
     1     1     2    2
     2     2     3   am
     3     2    10    1
     4     3     4    1
     5     3    27    1
     6     4     5   ar
     7     5     6   ar
     8     5    28    1
     9     6     7   ar
    10     6    29    1
    11     7     8   ar
    12     7    30    1
    13     8     9   ar
    14     8    31    1
    15     9     4   ar
    16    10    11   ar
    17    11    12   ar
    18    11    32    1
    19    12    13   ar
    20    12    33    1
    21    13    14   ar
    22    13    34    1
    23    14    15    1
    24    14    26   ar
    25    15    16    2
    26    15    17    2
    27    15    18    1
    28    18    19    1
    29    18    35    1
    30    19    20   ar
    31    20    21   ar
    32    20    36    1
    33    21    22   ar
    34    21    37    1
    35    22    23   ar
    36    22    38    1
    37    23    24   ar
    38    23    39    1
    39    24    25    1
    40    24    19   ar
    41    26    10   ar
    42    26    40    1
@<TRIPOS>MOLECULE
*****
 40 42 0 0 0
SMALL
GASTEIGER

@<TRIPOS>ATOM
      1 O          -3.0519   -0.3431    1.0949 O.2     1  UNL11      -0.2698
      2 C          -2.3062    0.0974    0.1863 C.2     1  UNL11       0.2494
      3 N          -2.7981    0.0228   -1.1382 N.am    1  UNL11      -0.2664
      4 C          -2.0482    0.4708   -2.2576 C.ar    1  UNL11       0.1251
      5 C          -1.2063   -0.3942   -2.9111 C.ar    1  UNL11      -0.0215
      6 C          -0.4880    0.0791   -4.0032 C.ar    1  UNL11      -0.0571
      7 C          -0.6267    1.3692   -4.4020 C.ar    1  UNL11      -0.0435
      8 C          -1.4764    2.2179   -3.7316 C.ar    1  UNL11       0.0297
      9 N          -2.1573    1.7313   -2.6797 N.ar    1  UNL11      -0.2401
     10 C          -1.0143    0.6424    0.5555 C.ar    1  UNL11       0.0389
     11 C          -0.5883    0.6883    1.8768 C.ar    1  UNL11      -0.0495
     12 C           0.6454    1.2122    2.2002 C.ar    1  UNL11      -0.0592
     13 C           1.4720    1.6974    1.2150 C.ar    1  UNL11      -0.0350
     14 C           1.0604    1.6566   -0.0947 C.ar    1  UNL11       0.1092
     15 S           2.1127    2.2705   -1.3871 S.O2    1  UNL11       0.0724
     16 O           2.4444    1.1316   -2.3265 O.2     1  UNL11      -0.1500
     17 O           3.3915    2.7128   -0.7661 O.2     1  UNL11      -0.1500
     18 N           1.3917    3.5452   -2.2550 N.pl3   1  UNL11      -0.2135
     19 C           1.5024    4.9271   -1.9512 C.ar    1  UNL11       0.0831
     20 C           0.6085    5.5644   -1.1224 C.ar    1  UNL11      -0.0365
     21 C           0.7111    6.9204   -0.8309 C.ar    1  UNL11      -0.0598
     22 C           1.7248    7.6843   -1.3686 C.ar    1  UNL11      -0.0589
     23 C           2.6265    7.0560   -2.2009 C.ar    1  UNL11      -0.0246
     24 C           2.5205    5.7120   -2.4867 C.ar    1  UNL11       0.1456
     25 F           3.4092    5.1039   -3.3036 F       1  UNL11      -0.2035
     26 C          -0.1704    1.1343   -0.4196 C.ar    1  UNL11      -0.0230
     27 H          -3.7631   -0.3831   -1.3004 H       1  UNL11       0.1566
     28 H          -1.1352   -1.4100   -2.5502 H       1  UNL11       0.0652
     29 H           0.1792   -0.6369   -4.5080 H       1  UNL11       0.0619
     30 H          -0.0415    1.6992   -5.2672 H       1  UNL11       0.0633
     31 H          -1.5586    3.2373   -4.0803 H       1  UNL11       0.0830
     32 H          -1.2346    0.3046    2.6850 H       1  UNL11       0.0625
     33 H           0.9451    1.2299    3.2597 H       1  UNL11       0.0618
     34 H           2.4450    2.1117    1.5052 H       1  UNL11       0.0637
     35 H           0.7950    3.3149   -3.1117 H       1  UNL11       0.1738
     36 H          -0.2095    5.0509   -0.6680 H       1  UNL11       0.0637
     37 H          -0.0203    7.3958   -0.1649 H       1  UNL11       0.0618
     38 H           1.8009    8.7495   -1.1361 H       1  UNL11       0.0618
     39 H           3.4286    7.6440   -2.6307 H       1  UNL11       0.0647
     40 H          -0.4648    1.1191   -1.4813 H       1  UNL11       0.0645
@<TRIPOS>BOND
     1     1     2    2
     2     2     3   am
     3     2    10    1
     4     3     4    1
     5     3    27    1
     6     4     5   ar
     7     5     6   ar
     8     5    28    1
     9     6     7   ar
    10     6    29    1
    11     7     8   ar
    12     7    30    1
    13     8     9   ar
    14     8    31    1
    15     9     4   ar
    16    10    11   ar
    17    11    12   ar
    18    11    32    1
    19    12    13   ar
    20    12    33    1
    21    13    14   ar
    22    13    34    1
    23    14    15    1
    24    14    26   ar
    25    15    16    2
    26    15    17    2
    27    15    18    1
    28    18    19    1
    29    18    35    1
    30    19    20   ar
    31    20    21   ar
    32    20    36    1
    33    21    22   ar
    34    21    37    1
    35    22    23   ar
    36    22    38    1
    37    23    24   ar
    38    23    39    1
    39    24    25    1
    40    24    19   ar
    41    26    10   ar
    42    26    40    1
@<TRIPOS>MOLECULE
*****
 40 42 0 0 0
SMALL
GASTEIGER

@<TRIPOS>ATOM
      1 O          -3.2485    0.1795    1.0115 O.2     1  UNL11      -0.2698
      2 C          -2.3062    0.0974    0.1863 C.2     1  UNL11       0.2494
      3 N          -2.5906   -0.5288   -1.0502 N.am    1  UNL11      -0.2664
      4 C          -1.6100   -0.7001   -2.0627 C.ar    1  UNL11       0.1251
      5 C          -0.8356   -1.8332   -2.0842 C.ar    1  UNL11      -0.0215
      6 C           0.1144   -1.9671   -3.0905 C.ar    1  UNL11      -0.0571
      7 C           0.2608   -0.9914   -4.0227 C.ar    1  UNL11      -0.0435
      8 C          -0.5267    0.1355   -3.9811 C.ar    1  UNL11       0.0297
      9 N          -1.4361    0.2364   -2.9964 N.ar    1  UNL11      -0.2401
     10 C          -1.0143    0.6424    0.5555 C.ar    1  UNL11       0.0389
     11 C          -0.5883    0.6883    1.8768 C.ar    1  UNL11      -0.0495
     12 C           0.6454    1.2122    2.2002 C.ar    1  UNL11      -0.0592
     13 C           1.4720    1.6974    1.2150 C.ar    1  UNL11      -0.0350
     14 C           1.0604    1.6566   -0.0947 C.ar    1  UNL11       0.1092
     15 S           2.1127    2.2705   -1.3871 S.O2    1  UNL11       0.0724
     16 O           2.9463    3.4072   -0.8369 O.2     1  UNL11      -0.1500
     17 O           1.2444    2.8404   -2.4538 O.2     1  UNL11      -0.1500
     18 N           3.1296    1.0609   -2.0201 N.pl3   1  UNL11      -0.2135
     19 C           2.7057   -0.1367   -2.6528 C.ar    1  UNL11       0.0831
     20 C           2.4908   -1.2971   -1.9460 C.ar    1  UNL11      -0.0365
     21 C           2.0836   -2.4734   -2.5662 C.ar    1  UNL11      -0.0598
     22 C           1.8783   -2.5197   -3.9286 C.ar    1  UNL11      -0.0589
     23 C           2.0910   -1.3626   -4.6471 C.ar    1  UNL11      -0.0246
     24 C           2.4944   -0.1994   -4.0278 C.ar    1  UNL11       0.1456
     25 F           2.7003    0.9308   -4.7400 F       1  UNL11      -0.2035
     26 C          -0.1704    1.1343   -0.4196 C.ar    1  UNL11      -0.0230
     27 H          -3.5731   -0.8833   -1.2268 H       1  UNL11       0.1566
     28 H          -0.9952   -2.5771   -1.3172 H       1  UNL11       0.0652
     29 H           0.7208   -2.8862   -3.0829 H       1  UNL11       0.0619
     30 H           1.0213   -1.1387   -4.7971 H       1  UNL11       0.0633
     31 H          -0.3791    0.8890   -4.7413 H       1  UNL11       0.0830
     32 H          -1.2346    0.3046    2.6850 H       1  UNL11       0.0625
     33 H           0.9451    1.2299    3.2597 H       1  UNL11       0.0618
     34 H           2.4450    2.1117    1.5052 H       1  UNL11       0.0637
     35 H           4.1889    1.1866   -1.9490 H       1  UNL11       0.1738
     36 H           2.6313   -1.3522   -0.8893 H       1  UNL11       0.0637
     37 H           1.9214   -3.3807   -1.9704 H       1  UNL11       0.0618
     38 H           1.5582   -3.4467   -4.4109 H       1  UNL11       0.0618
     39 H           1.9334   -1.3842   -5.7188 H       1  UNL11       0.0647
     40 H          -0.4648    1.1191   -1.4813 H       1  UNL11       0.0645
@<TRIPOS>BOND
     1     1     2    2
     2     2     3   am
     3     2    10    1
     4     3     4    1
     5     3    27    1
     6     4     5   ar
     7     5     6   ar
     8     5    28    1
     9     6     7   ar
    10     6    29    1
    11     7     8   ar
    12     7    30    1
    13     8     9   ar
    14     8    31    1
    15     9     4   ar
    16    10    11   ar
    17    11    12   ar
    18    11    32    1
    19    12    13   ar
    20    12    33    1
    21    13    14   ar
    22    13    34    1
    23    14    15    1
    24    14    26   ar
    25    15    16    2
    26    15    17    2
    27    15    18    1
    28    18    19    1
    29    18    35    1
    30    19    20   ar
    31    20    21   ar
    32    20    36    1
    33    21    22   ar
    34    21    37    1
    35    22    23   ar
    36    22    38    1
    37    23    24   ar
    38    23    39    1
    39    24    25    1
    40    24    19   ar
    41    26    10   ar
    42    26    40    1
@<TRIPOS>MOLECULE
*****
 40 42 0 0 0
SMALL
GASTEIGER

@<TRIPOS>ATOM
      1 O          -2.6217    0.0756   -1.0284 O.2     1  UNL11      -0.2698
      2 C          -2.3062    0.0974    0.1863 C.2     1  UNL11       0.2494
      3 N          -3.2522   -0.4191    1.1029 N.am    1  UNL11      -0.2664
      4 C          -4.5057   -0.9444    0.6918 C.ar    1  UNL11       0.1251
      5 C          -4.6240   -2.2763    0.3820 C.ar    1  UNL11      -0.0215
      6 C          -5.8666   -2.7558   -0.0165 C.ar    1  UNL11      -0.0571
      7 C          -6.9287   -1.9139   -0.0927 C.ar    1  UNL11      -0.0435
      8 C          -6.7863   -0.5828    0.2227 C.ar    1  UNL11       0.0297
      9 N          -5.5727   -0.1489    0.6046 N.ar    1  UNL11      -0.2401
     10 C          -1.0143    0.6424    0.5555 C.ar    1  UNL11       0.0389
     11 C          -0.5883    0.6883    1.8768 C.ar    1  UNL11      -0.0495
     12 C           0.6454    1.2122    2.2002 C.ar    1  UNL11      -0.0592
     13 C           1.4720    1.6974    1.2150 C.ar    1  UNL11      -0.0350
     14 C           1.0604    1.6566   -0.0947 C.ar    1  UNL11       0.1092
     15 S           2.1127    2.2705   -1.3871 S.O2    1  UNL11       0.0724
     16 O           3.3781    2.8191   -0.7647 O.2     1  UNL11      -0.1500
     17 O           1.4164    3.4117   -2.0424 O.2     1  UNL11      -0.1500
     18 N           2.5029    1.0679   -2.5270 N.pl3   1  UNL11      -0.2135
     19 C           3.3330    1.2373   -3.6657 C.ar    1  UNL11       0.0831
     20 C           4.6901    1.0179   -3.6167 C.ar    1  UNL11      -0.0365
     21 C           5.5056    1.1918   -4.7297 C.ar    1  UNL11      -0.0598
     22 C           4.9770    1.5955   -5.9372 C.ar    1  UNL11      -0.0589
     23 C           3.6180    1.8185   -5.9978 C.ar    1  UNL11      -0.0246
     24 C           2.8141    1.6448   -4.8921 C.ar    1  UNL11       0.1456
     25 F           1.4823    1.8654   -4.9604 F       1  UNL11      -0.2035
     26 C          -0.1704    1.1343   -0.4196 C.ar    1  UNL11      -0.0230
     27 H          -3.0158   -0.4134    2.1355 H       1  UNL11       0.1566
     28 H          -3.7454   -2.9002    0.4603 H       1  UNL11       0.0652
     29 H          -5.9319   -3.8280   -0.2585 H       1  UNL11       0.0619
     30 H          -7.8886   -2.3346   -0.4112 H       1  UNL11       0.0633
     31 H          -7.6558    0.0545    0.1492 H       1  UNL11       0.0830
     32 H          -1.2346    0.3046    2.6850 H       1  UNL11       0.0625
     33 H           0.9451    1.2299    3.2597 H       1  UNL11       0.0618
     34 H           2.4450    2.1117    1.5052 H       1  UNL11       0.0637
     35 H           2.1006    0.0855   -2.4005 H       1  UNL11       0.1738
     36 H           5.1831    0.7093   -2.7216 H       1  UNL11       0.0637
     37 H           6.5848    1.0072   -4.6540 H       1  UNL11       0.0618
     38 H           5.6225    1.7305   -6.8087 H       1  UNL11       0.0618
     39 H           3.1887    2.1361   -6.9405 H       1  UNL11       0.0647
     40 H          -0.4648    1.1191   -1.4813 H       1  UNL11       0.0645
@<TRIPOS>BOND
     1     1     2    2
     2     2     3   am
     3     2    10    1
     4     3     4    1
     5     3    27    1
     6     4     5   ar
     7     5     6   ar
     8     5    28    1
     9     6     7   ar
    10     6    29    1
    11     7     8   ar
    12     7    30    1
    13     8     9   ar
    14     8    31    1
    15     9     4   ar
    16    10    11   ar
    17    11    12   ar
    18    11    32    1
    19    12    13   ar
    20    12    33    1
    21    13    14   ar
    22    13    34    1
    23    14    15    1
    24    14    26   ar
    25    15    16    2
    26    15    17    2
    27    15    18    1
    28    18    19    1
    29    18    35    1
    30    19    20   ar
    31    20    21   ar
    32    20    36    1
    33    21    22   ar
    34    21    37    1
    35    22    23   ar
    36    22    38    1
    37    23    24   ar
    38    23    39    1
    39    24    25    1
    40    24    19   ar
    41    26    10   ar
    42    26    40    1
@<TRIPOS>MOLECULE
*****
 40 42 0 0 0
SMALL
GASTEIGER

@<TRIPOS>ATOM
      1 O          -2.8856    0.5634   -0.8250 O.2     1  UNL11      -0.2698
      2 C          -2.3062    0.0974    0.1863 C.2     1  UNL11       0.2494
      3 N          -2.9736   -0.9340    0.8882 N.am    1  UNL11      -0.2664
      4 C          -2.4350   -1.5349    2.0565 C.ar    1  UNL11       0.1251
      5 C          -1.2216   -2.1742    2.0032 C.ar    1  UNL11      -0.0215
      6 C          -0.7251   -2.7509    3.1667 C.ar    1  UNL11      -0.0571
      7 C          -1.4355   -2.6750    4.3209 C.ar    1  UNL11      -0.0435
      8 C          -2.6494   -2.0291    4.3504 C.ar    1  UNL11       0.0297
      9 N          -3.1031   -1.4816    3.2097 N.ar    1  UNL11      -0.2401
     10 C          -1.0143    0.6424    0.5555 C.ar    1  UNL11       0.0389
     11 C          -0.5883    0.6883    1.8768 C.ar    1  UNL11      -0.0495
     12 C           0.6454    1.2122    2.2002 C.ar    1  UNL11      -0.0592
     13 C           1.4720    1.6974    1.2150 C.ar    1  UNL11      -0.0350
     14 C           1.0604    1.6566   -0.0947 C.ar    1  UNL11       0.1092
     15 S           2.1127    2.2705   -1.3871 S.O2    1  UNL11       0.0724
     16 O           1.3803    3.3652   -2.1320 O.2     1  UNL11      -0.1500
     17 O           2.3455    1.1627   -2.3541 O.2     1  UNL11      -0.1500
     18 N           3.5899    2.8672   -0.7873 N.pl3   1  UNL11      -0.2135
     19 C           4.6344    3.4363   -1.5615 C.ar    1  UNL11       0.0831
     20 C           4.6949    4.7854   -1.8231 C.ar    1  UNL11      -0.0365
     21 C           5.7134    5.3429   -2.5887 C.ar    1  UNL11      -0.0598
     22 C           6.7113    4.5539   -3.1198 C.ar    1  UNL11      -0.0589
     23 C           6.6605    3.2002   -2.8642 C.ar    1  UNL11      -0.0246
     24 C           5.6492    2.6526   -2.1049 C.ar    1  UNL11       0.1456
     25 F           5.6072    1.3242   -1.8589 F       1  UNL11      -0.2035
     26 C          -0.1704    1.1343   -0.4196 C.ar    1  UNL11      -0.0230
     27 H          -3.9112   -1.2705    0.5278 H       1  UNL11       0.1566
     28 H          -0.6998   -2.2041    1.0576 H       1  UNL11       0.0652
     29 H           0.2503   -3.2567    3.0941 H       1  UNL11       0.0619
     30 H          -1.0062   -3.1433    5.2132 H       1  UNL11       0.0633
     31 H          -3.1838   -1.9907    5.2887 H       1  UNL11       0.0830
     32 H          -1.2346    0.3046    2.6850 H       1  UNL11       0.0625
     33 H           0.9451    1.2299    3.2597 H       1  UNL11       0.0618
     34 H           2.4450    2.1117    1.5052 H       1  UNL11       0.0637
     35 H           3.7768    2.8224    0.2644 H       1  UNL11       0.1738
     36 H           3.9610    5.4681   -1.4562 H       1  UNL11       0.0637
     37 H           5.7300    6.4240   -2.7769 H       1  UNL11       0.0618
     38 H           7.5093    4.9972   -3.7207 H       1  UNL11       0.0618
     39 H           7.4384    2.5679   -3.2752 H       1  UNL11       0.0647
     40 H          -0.4648    1.1191   -1.4813 H       1  UNL11       0.0645
@<TRIPOS>BOND
     1     1     2    2
     2     2     3   am
     3     2    10    1
     4     3     4    1
     5     3    27    1
     6     4     5   ar
     7     5     6   ar
     8     5    28    1
     9     6     7   ar
    10     6    29    1
    11     7     8   ar
    12     7    30    1
    13     8     9   ar
    14     8    31    1
    15     9     4   ar
    16    10    11   ar
    17    11    12   ar
    18    11    32    1
    19    12    13   ar
    20    12    33    1
    21    13    14   ar
    22    13    34    1
    23    14    15    1
    24    14    26   ar
    25    15    16    2
    26    15    17    2
    27    15    18    1
    28    18    19    1
    29    18    35    1
    30    19    20   ar
    31    20    21   ar
    32    20    36    1
    33    21    22   ar
    34    21    37    1
    35    22    23   ar
    36    22    38    1
    37    23    24   ar
    38    23    39    1
    39    24    25    1
    40    24    19   ar
    41    26    10   ar
    42    26    40    1
@<TRIPOS>MOLECULE
*****
 40 42 0 0 0
SMALL
GASTEIGER

@<TRIPOS>ATOM
      1 O          -2.4271   -0.4467   -0.9384 O.2     1  UNL11      -0.2698
      2 C          -2.3062    0.0974    0.1863 C.2     1  UNL11       0.2494
      3 N          -3.4576    0.1321    1.0079 N.am    1  UNL11      -0.2664
      4 C          -3.4595    0.7322    2.2947 C.ar    1  UNL11       0.1251
      5 C          -4.6059    0.7354    3.0495 C.ar    1  UNL11      -0.0215
      6 C          -4.5708    1.3318    4.3049 C.ar    1  UNL11      -0.0571
      7 C          -3.4219    1.8938    4.7596 C.ar    1  UNL11      -0.0435
      8 C          -2.2852    1.8787    3.9855 C.ar    1  UNL11       0.0297
      9 N          -2.3502    1.2948    2.7765 N.ar    1  UNL11      -0.2401
     10 C          -1.0143    0.6424    0.5555 C.ar    1  UNL11       0.0389
     11 C          -0.5883    0.6883    1.8768 C.ar    1  UNL11      -0.0495
     12 C           0.6454    1.2122    2.2002 C.ar    1  UNL11      -0.0592
     13 C           1.4720    1.6974    1.2150 C.ar    1  UNL11      -0.0350
     14 C           1.0604    1.6566   -0.0947 C.ar    1  UNL11       0.1092
     15 S           2.1127    2.2705   -1.3871 S.O2    1  UNL11       0.0724
     16 O           3.3781    2.8191   -0.7647 O.2     1  UNL11      -0.1500
     17 O           1.4164    3.4117   -2.0424 O.2     1  UNL11      -0.1500
     18 N           2.5029    1.0679   -2.5270 N.pl3   1  UNL11      -0.2135
     19 C           1.5794    0.3558   -3.3359 C.ar    1  UNL11       0.0831
     20 C           1.2071    0.8031   -4.5823 C.ar    1  UNL11      -0.0365
     21 C           0.2958    0.1105   -5.3723 C.ar    1  UNL11      -0.0598
     22 C          -0.2745   -1.0638   -4.9293 C.ar    1  UNL11      -0.0589
     23 C           0.0912   -1.5214   -3.6814 C.ar    1  UNL11      -0.0246
     24 C           0.9948   -0.8315   -2.9024 C.ar    1  UNL11       0.1456
     25 F           1.3480   -1.2875   -1.6801 F       1  UNL11      -0.2035
     26 C          -0.1704    1.1343   -0.4196 C.ar    1  UNL11      -0.0230
     27 H          -4.3524   -0.3066    0.6486 H       1  UNL11       0.1566
     28 H          -5.4914    0.2735    2.6375 H       1  UNL11       0.0652
     29 H          -5.5048    1.3192    4.8879 H       1  UNL11       0.0619
     30 H          -3.4397    2.3524    5.7542 H       1  UNL11       0.0633
     31 H          -1.3911    2.3367    4.3835 H       1  UNL11       0.0830
     32 H          -1.2346    0.3046    2.6850 H       1  UNL11       0.0625
     33 H           0.9451    1.2299    3.2597 H       1  UNL11       0.0618
     34 H           2.4450    2.1117    1.5052 H       1  UNL11       0.0637
     35 H           3.5290    0.8030   -2.6685 H       1  UNL11       0.1738
     36 H           1.5948    1.7053   -5.0007 H       1  UNL11       0.0637
     37 H           0.0220    0.4971   -6.3622 H       1  UNL11       0.0618
     38 H          -0.9900   -1.6041   -5.5542 H       1  UNL11       0.0618
     39 H          -0.3489   -2.4432   -3.3203 H       1  UNL11       0.0647
     40 H          -0.4648    1.1191   -1.4813 H       1  UNL11       0.0645
@<TRIPOS>BOND
     1     1     2    2
     2     2     3   am
     3     2    10    1
     4     3     4    1
     5     3    27    1
     6     4     5   ar
     7     5     6   ar
     8     5    28    1
     9     6     7   ar
    10     6    29    1
    11     7     8   ar
    12     7    30    1
    13     8     9   ar
    14     8    31    1
    15     9     4   ar
    16    10    11   ar
    17    11    12   ar
    18    11    32    1
    19    12    13   ar
    20    12    33    1
    21    13    14   ar
    22    13    34    1
    23    14    15    1
    24    14    26   ar
    25    15    16    2
    26    15    17    2
    27    15    18    1
    28    18    19    1
    29    18    35    1
    30    19    20   ar
    31    20    21   ar
    32    20    36    1
    33    21    22   ar
    34    21    37    1
    35    22    23   ar
    36    22    38    1
    37    23    24   ar
    38    23    39    1
    39    24    25    1
    40    24    19   ar
    41    26    10   ar
    42    26    40    1
@<TRIPOS>MOLECULE
*****
 40 42 0 0 0
SMALL
GASTEIGER

@<TRIPOS>ATOM
      1 O          -2.8856    0.5634   -0.8250 O.2     1  UNL11      -0.2698
      2 C          -2.3062    0.0974    0.1863 C.2     1  UNL11       0.2494
      3 N          -2.9736   -0.9340    0.8882 N.am    1  UNL11      -0.2664
      4 C          -2.4350   -1.5349    2.0565 C.ar    1  UNL11       0.1251
      5 C          -1.2216   -2.1742    2.0032 C.ar    1  UNL11      -0.0215
      6 C          -0.7251   -2.7509    3.1667 C.ar    1  UNL11      -0.0571
      7 C          -1.4355   -2.6750    4.3209 C.ar    1  UNL11      -0.0435
      8 C          -2.6494   -2.0291    4.3504 C.ar    1  UNL11       0.0297
      9 N          -3.1031   -1.4816    3.2097 N.ar    1  UNL11      -0.2401
     10 C          -1.0143    0.6424    0.5555 C.ar    1  UNL11       0.0389
     11 C          -0.5883    0.6883    1.8768 C.ar    1  UNL11      -0.0495
     12 C           0.6454    1.2122    2.2002 C.ar    1  UNL11      -0.0592
     13 C           1.4720    1.6974    1.2150 C.ar    1  UNL11      -0.0350
     14 C           1.0604    1.6566   -0.0947 C.ar    1  UNL11       0.1092
     15 S           2.1127    2.2705   -1.3871 S.O2    1  UNL11       0.0724
     16 O           1.3803    3.3652   -2.1320 O.2     1  UNL11      -0.1500
     17 O           2.3455    1.1627   -2.3541 O.2     1  UNL11      -0.1500
     18 N           3.5899    2.8672   -0.7873 N.pl3   1  UNL11      -0.2135
     19 C           3.7968    3.4455    0.4922 C.ar    1  UNL11       0.0831
     20 C           3.6614    4.7968    0.7110 C.ar    1  UNL11      -0.0365
     21 C           3.8721    5.3657    1.9625 C.ar    1  UNL11      -0.0598
     22 C           4.2289    4.5864    3.0422 C.ar    1  UNL11      -0.0589
     23 C           4.3677    3.2306    2.8343 C.ar    1  UNL11      -0.0246
     24 C           4.1577    2.6717    1.5923 C.ar    1  UNL11       0.1456
     25 F           4.2956    1.3414    1.3974 F       1  UNL11      -0.2035
     26 C          -0.1704    1.1343   -0.4196 C.ar    1  UNL11      -0.0230
     27 H          -3.9112   -1.2705    0.5278 H       1  UNL11       0.1566
     28 H          -0.6998   -2.2041    1.0576 H       1  UNL11       0.0652
     29 H           0.2503   -3.2567    3.0941 H       1  UNL11       0.0619
     30 H          -1.0062   -3.1433    5.2132 H       1  UNL11       0.0633
     31 H          -3.1838   -1.9907    5.2887 H       1  UNL11       0.0830
     32 H          -1.2346    0.3046    2.6850 H       1  UNL11       0.0625
     33 H           0.9451    1.2299    3.2597 H       1  UNL11       0.0618
     34 H           2.4450    2.1117    1.5052 H       1  UNL11       0.0637
     35 H           4.4587    2.8156   -1.4082 H       1  UNL11       0.1738
     36 H           3.3938    5.4741   -0.0694 H       1  UNL11       0.0637
     37 H           3.7548    6.4481    2.1005 H       1  UNL11       0.0618
     38 H           4.3932    5.0386    4.0235 H       1  UNL11       0.0618
     39 H           4.6476    2.6058    3.6740 H       1  UNL11       0.0647
     40 H          -0.4648    1.1191   -1.4813 H       1  UNL11       0.0645
@<TRIPOS>BOND
     1     1     2    2
     2     2     3   am
     3     2    10    1
     4     3     4    1
     5     3    27    1
     6     4     5   ar
     7     5     6   ar
     8     5    28    1
     9     6     7   ar
    10     6    29    1
    11     7     8   ar
    12     7    30    1
    13     8     9   ar
    14     8    31    1
    15     9     4   ar
    16    10    11   ar
    17    11    12   ar
    18    11    32    1
    19    12    13   ar
    20    12    33    1
    21    13    14   ar
    22    13    34    1
    23    14    15    1
    24    14    26   ar
    25    15    16    2
    26    15    17    2
    27    15    18    1
    28    18    19    1
    29    18    35    1
    30    19    20   ar
    31    20    21   ar
    32    20    36    1
    33    21    22   ar
    34    21    37    1
    35    22    23   ar
    36    22    38    1
    37    23    24   ar
    38    23    39    1
    39    24    25    1
    40    24    19   ar
    41    26    10   ar
    42    26    40    1
@<TRIPOS>MOLECULE
*****
 40 42 0 0 0
SMALL
GASTEIGER

@<TRIPOS>ATOM
      1 O          -2.8856    0.5634   -0.8250 O.2     1  UNL11      -0.2698
      2 C          -2.3062    0.0974    0.1863 C.2     1  UNL11       0.2494
      3 N          -2.9736   -0.9340    0.8882 N.am    1  UNL11      -0.2664
      4 C          -2.4350   -1.5349    2.0565 C.ar    1  UNL11       0.1251
      5 C          -1.2216   -2.1742    2.0032 C.ar    1  UNL11      -0.0215
      6 C          -0.7251   -2.7509    3.1667 C.ar    1  UNL11      -0.0571
      7 C          -1.4355   -2.6750    4.3209 C.ar    1  UNL11      -0.0435
      8 C          -2.6494   -2.0291    4.3504 C.ar    1  UNL11       0.0297
      9 N          -3.1031   -1.4816    3.2097 N.ar    1  UNL11      -0.2401
     10 C          -1.0143    0.6424    0.5555 C.ar    1  UNL11       0.0389
     11 C          -0.5883    0.6883    1.8768 C.ar    1  UNL11      -0.0495
     12 C           0.6454    1.2122    2.2002 C.ar    1  UNL11      -0.0592
     13 C           1.4720    1.6974    1.2150 C.ar    1  UNL11      -0.0350
     14 C           1.0604    1.6566   -0.0947 C.ar    1  UNL11       0.1092
     15 S           2.1127    2.2705   -1.3871 S.O2    1  UNL11       0.0724
     16 O           1.8681    1.4587   -2.6404 O.2     1  UNL11      -0.1500
     17 O           3.5251    2.0334   -0.9802 O.2     1  UNL11      -0.1500
     18 N           1.8466    3.9214   -1.7060 N.pl3   1  UNL11      -0.2135
     19 C           0.6190    4.5032   -2.1167 C.ar    1  UNL11       0.0831
     20 C           0.2861    4.6398   -3.4444 C.ar    1  UNL11      -0.0365
     21 C          -0.9129    5.2175   -3.8481 C.ar    1  UNL11      -0.0598
     22 C          -1.8223    5.6799   -2.9209 C.ar    1  UNL11      -0.0589
     23 C          -1.4989    5.5482   -1.5873 C.ar    1  UNL11      -0.0246
     24 C          -0.3096    4.9750   -1.1923 C.ar    1  UNL11       0.1456
     25 F          -0.0006    4.8496    0.1175 F       1  UNL11      -0.2035
     26 C          -0.1704    1.1343   -0.4196 C.ar    1  UNL11      -0.0230
     27 H          -3.9112   -1.2705    0.5278 H       1  UNL11       0.1566
     28 H          -0.6998   -2.2041    1.0576 H       1  UNL11       0.0652
     29 H           0.2503   -3.2567    3.0941 H       1  UNL11       0.0619
     30 H          -1.0062   -3.1433    5.2132 H       1  UNL11       0.0633
     31 H          -3.1838   -1.9907    5.2887 H       1  UNL11       0.0830
     32 H          -1.2346    0.3046    2.6850 H       1  UNL11       0.0625
     33 H           0.9451    1.2299    3.2597 H       1  UNL11       0.0618
     34 H           2.4450    2.1117    1.5052 H       1  UNL11       0.0637
     35 H           2.6596    4.6069   -1.5958 H       1  UNL11       0.1738
     36 H           0.9336    4.3146   -4.2282 H       1  UNL11       0.0637
     37 H          -1.1456    5.3100   -4.9166 H       1  UNL11       0.0618
     38 H          -2.7630    6.1329   -3.2437 H       1  UNL11       0.0618
     39 H          -2.2043    5.9071   -0.8474 H       1  UNL11       0.0647
     40 H          -0.4648    1.1191   -1.4813 H       1  UNL11       0.0645
@<TRIPOS>BOND
     1     1     2    2
     2     2     3   am
     3     2    10    1
     4     3     4    1
     5     3    27    1
     6     4     5   ar
     7     5     6   ar
     8     5    28    1
     9     6     7   ar
    10     6    29    1
    11     7     8   ar
    12     7    30    1
    13     8     9   ar
    14     8    31    1
    15     9     4   ar
    16    10    11   ar
    17    11    12   ar
    18    11    32    1
    19    12    13   ar
    20    12    33    1
    21    13    14   ar
    22    13    34    1
    23    14    15    1
    24    14    26   ar
    25    15    16    2
    26    15    17    2
    27    15    18    1
    28    18    19    1
    29    18    35    1
    30    19    20   ar
    31    20    21   ar
    32    20    36    1
    33    21    22   ar
    34    21    37    1
    35    22    23   ar
    36    22    38    1
    37    23    24   ar
    38    23    39    1
    39    24    25    1
    40    24    19   ar
    41    26    10   ar
    42    26    40    1
@<TRIPOS>MOLECULE
*****
 40 42 0 0 0
SMALL
GASTEIGER

@<TRIPOS>ATOM
      1 O          -3.2485    0.1795    1.0115 O.2     1  UNL11      -0.2698
      2 C          -2.3062    0.0974    0.1863 C.2     1  UNL11       0.2494
      3 N          -2.5906   -0.5288   -1.0502 N.am    1  UNL11      -0.2664
      4 C          -1.6100   -0.7001   -2.0627 C.ar    1  UNL11       0.1251
      5 C          -1.4256    0.2737   -3.0122 C.ar    1  UNL11      -0.0215
      6 C          -0.4563    0.0720   -3.9882 C.ar    1  UNL11      -0.0571
      7 C           0.2826   -1.0667   -3.9888 C.ar    1  UNL11      -0.0435
      8 C           0.0801   -2.0288   -3.0271 C.ar    1  UNL11       0.0297
      9 N          -0.8640   -1.8053   -2.0968 N.ar    1  UNL11      -0.2401
     10 C          -1.0143    0.6424    0.5555 C.ar    1  UNL11       0.0389
     11 C          -0.5883    0.6883    1.8768 C.ar    1  UNL11      -0.0495
     12 C           0.6454    1.2122    2.2002 C.ar    1  UNL11      -0.0592
     13 C           1.4720    1.6974    1.2150 C.ar    1  UNL11      -0.0350
     14 C           1.0604    1.6566   -0.0947 C.ar    1  UNL11       0.1092
     15 S           2.1127    2.2705   -1.3871 S.O2    1  UNL11       0.0724
     16 O           1.3803    3.3652   -2.1320 O.2     1  UNL11      -0.1500
     17 O           2.3455    1.1627   -2.3541 O.2     1  UNL11      -0.1500
     18 N           3.5899    2.8672   -0.7873 N.pl3   1  UNL11      -0.2135
     19 C           3.9854    2.8949    0.5755 C.ar    1  UNL11       0.0831
     20 C           4.6697    1.8527    1.1565 C.ar    1  UNL11      -0.0365
     21 C           5.0503    1.8752    2.4940 C.ar    1  UNL11      -0.0598
     22 C           4.7516    2.9561    3.2958 C.ar    1  UNL11      -0.0589
     23 C           4.0657    4.0064    2.7240 C.ar    1  UNL11      -0.0246
     24 C           3.6909    3.9793    1.3981 C.ar    1  UNL11       0.1456
     25 F           3.0188    5.0136    0.8454 F       1  UNL11      -0.2035
     26 C          -0.1704    1.1343   -0.4196 C.ar    1  UNL11      -0.0230
     27 H          -3.5731   -0.8833   -1.2268 H       1  UNL11       0.1566
     28 H          -2.0421    1.1596   -2.9634 H       1  UNL11       0.0652
     29 H          -0.3303    0.8698   -4.7366 H       1  UNL11       0.0619
     30 H           1.0350   -1.1836   -4.7763 H       1  UNL11       0.0633
     31 H           0.6888   -2.9210   -3.0623 H       1  UNL11       0.0830
     32 H          -1.2346    0.3046    2.6850 H       1  UNL11       0.0625
     33 H           0.9451    1.2299    3.2597 H       1  UNL11       0.0618
     34 H           2.4450    2.1117    1.5052 H       1  UNL11       0.0637
     35 H           4.3051    3.2640   -1.4758 H       1  UNL11       0.1738
     36 H           4.9366    0.9749    0.6111 H       1  UNL11       0.0637
     37 H           5.5957    1.0256    2.9242 H       1  UNL11       0.0618
     38 H           5.0532    2.9687    4.3462 H       1  UNL11       0.0618
     39 H           3.8243    4.8628    3.3423 H       1  UNL11       0.0647
     40 H          -0.4648    1.1191   -1.4813 H       1  UNL11       0.0645
@<TRIPOS>BOND
     1     1     2    2
     2     2     3   am
     3     2    10    1
     4     3     4    1
     5     3    27    1
     6     4     5   ar
     7     5     6   ar
     8     5    28    1
     9     6     7   ar
    10     6    29    1
    11     7     8   ar
    12     7    30    1
    13     8     9   ar
    14     8    31    1
    15     9     4   ar
    16    10    11   ar
    17    11    12   ar
    18    11    32    1
    19    12    13   ar
    20    12    33    1
    21    13    14   ar
    22    13    34    1
    23    14    15    1
    24    14    26   ar
    25    15    16    2
    26    15    17    2
    27    15    18    1
    28    18    19    1
    29    18    35    1
    30    19    20   ar
    31    20    21   ar
    32    20    36    1
    33    21    22   ar
    34    21    37    1
    35    22    23   ar
    36    22    38    1
    37    23    24   ar
    38    23    39    1
    39    24    25    1
    40    24    19   ar
    41    26    10   ar
    42    26    40    1
@<TRIPOS>MOLECULE
*****
 40 42 0 0 0
SMALL
GASTEIGER

@<TRIPOS>ATOM
      1 O          -3.2485    0.1795    1.0115 O.2     1  UNL11      -0.2698
      2 C          -2.3062    0.0974    0.1863 C.2     1  UNL11       0.2494
      3 N          -2.5906   -0.5288   -1.0502 N.am    1  UNL11      -0.2664
      4 C          -1.6100   -0.7001   -2.0627 C.ar    1  UNL11       0.1251
      5 C          -0.8356   -1.8332   -2.0842 C.ar    1  UNL11      -0.0215
      6 C           0.1144   -1.9671   -3.0905 C.ar    1  UNL11      -0.0571
      7 C           0.2608   -0.9914   -4.0227 C.ar    1  UNL11      -0.0435
      8 C          -0.5267    0.1355   -3.9811 C.ar    1  UNL11       0.0297
      9 N          -1.4361    0.2364   -2.9964 N.ar    1  UNL11      -0.2401
     10 C          -1.0143    0.6424    0.5555 C.ar    1  UNL11       0.0389
     11 C          -0.5883    0.6883    1.8768 C.ar    1  UNL11      -0.0495
     12 C           0.6454    1.2122    2.2002 C.ar    1  UNL11      -0.0592
     13 C           1.4720    1.6974    1.2150 C.ar    1  UNL11      -0.0350
     14 C           1.0604    1.6566   -0.0947 C.ar    1  UNL11       0.1092
     15 S           2.1127    2.2705   -1.3871 S.O2    1  UNL11       0.0724
     16 O           2.9463    3.4072   -0.8369 O.2     1  UNL11      -0.1500
     17 O           1.2444    2.8404   -2.4538 O.2     1  UNL11      -0.1500
     18 N           3.1296    1.0609   -2.0201 N.pl3   1  UNL11      -0.2135
     19 C           4.4246    1.2622   -2.5648 C.ar    1  UNL11       0.0831
     20 C           5.5588    1.2000   -1.7890 C.ar    1  UNL11      -0.0365
     21 C           6.8275    1.4055   -2.3201 C.ar    1  UNL11      -0.0598
     22 C           6.9965    1.6826   -3.6600 C.ar    1  UNL11      -0.0589
     23 C           5.8666    1.7476   -4.4471 C.ar    1  UNL11      -0.0246
     24 C           4.6115    1.5432   -3.9159 C.ar    1  UNL11       0.1456
     25 F           3.5089    1.6085   -4.6950 F       1  UNL11      -0.2035
     26 C          -0.1704    1.1343   -0.4196 C.ar    1  UNL11      -0.0230
     27 H          -3.5731   -0.8833   -1.2268 H       1  UNL11       0.1566
     28 H          -0.9952   -2.5771   -1.3172 H       1  UNL11       0.0652
     29 H           0.7208   -2.8862   -3.0829 H       1  UNL11       0.0619
     30 H           1.0213   -1.1387   -4.7971 H       1  UNL11       0.0633
     31 H          -0.3791    0.8890   -4.7413 H       1  UNL11       0.0830
     32 H          -1.2346    0.3046    2.6850 H       1  UNL11       0.0625
     33 H           0.9451    1.2299    3.2597 H       1  UNL11       0.0618
     34 H           2.4450    2.1117    1.5052 H       1  UNL11       0.0637
     35 H           2.7890    0.0475   -2.0213 H       1  UNL11       0.1738
     36 H           5.5196    0.9967   -0.7418 H       1  UNL11       0.0637
     37 H           7.7106    1.3479   -1.6711 H       1  UNL11       0.0618
     38 H           7.9959    1.8432   -4.0722 H       1  UNL11       0.0618
     39 H           5.9844    1.9645   -5.5021 H       1  UNL11       0.0647
     40 H          -0.4648    1.1191   -1.4813 H       1  UNL11       0.0645
@<TRIPOS>BOND
     1     1     2    2
     2     2     3   am
     3     2    10    1
     4     3     4    1
     5     3    27    1
     6     4     5   ar
     7     5     6   ar
     8     5    28    1
     9     6     7   ar
    10     6    29    1
    11     7     8   ar
    12     7    30    1
    13     8     9   ar
    14     8    31    1
    15     9     4   ar
    16    10    11   ar
    17    11    12   ar
    18    11    32    1
    19    12    13   ar
    20    12    33    1
    21    13    14   ar
    22    13    34    1
    23    14    15    1
    24    14    26   ar
    25    15    16    2
    26    15    17    2
    27    15    18    1
    28    18    19    1
    29    18    35    1
    30    19    20   ar
    31    20    21   ar
    32    20    36    1
    33    21    22   ar
    34    21    37    1
    35    22    23   ar
    36    22    38    1
    37    23    24   ar
    38    23    39    1
    39    24    25    1
    40    24    19   ar
    41    26    10   ar
    42    26    40    1
@<TRIPOS>MOLECULE
*****
 40 42 0 0 0
SMALL
GASTEIGER

@<TRIPOS>ATOM
      1 O          -2.4271   -0.4467   -0.9384 O.2     1  UNL11      -0.2698
      2 C          -2.3062    0.0974    0.1863 C.2     1  UNL11       0.2494
      3 N          -3.4576    0.1321    1.0079 N.am    1  UNL11      -0.2664
      4 C          -4.7022   -0.4176    0.6018 C.ar    1  UNL11       0.1251
      5 C          -5.8625   -0.0201    1.2179 C.ar    1  UNL11      -0.0215
      6 C          -7.0627   -0.5793    0.7941 C.ar    1  UNL11      -0.0571
      7 C          -7.0706   -1.4959   -0.2070 C.ar    1  UNL11      -0.0435
      8 C          -5.8952   -1.8791   -0.8099 C.ar    1  UNL11       0.0297
      9 N          -4.7511   -1.3209   -0.3784 N.ar    1  UNL11      -0.2401
     10 C          -1.0143    0.6424    0.5555 C.ar    1  UNL11       0.0389
     11 C          -0.5883    0.6883    1.8768 C.ar    1  UNL11      -0.0495
     12 C           0.6454    1.2122    2.2002 C.ar    1  UNL11      -0.0592
     13 C           1.4720    1.6974    1.2150 C.ar    1  UNL11      -0.0350
     14 C           1.0604    1.6566   -0.0947 C.ar    1  UNL11       0.1092
     15 S           2.1127    2.2705   -1.3871 S.O2    1  UNL11       0.0724
     16 O           3.4148    1.5002   -1.3613 O.2     1  UNL11      -0.1500
     17 O           2.4375    3.6904   -1.0786 O.2     1  UNL11      -0.1500
     18 N           1.3920    2.1373   -2.9236 N.pl3   1  UNL11      -0.2135
     19 C           0.4534    1.1496   -3.3207 C.ar    1  UNL11       0.0831
     20 C          -0.9024    1.3352   -3.1808 C.ar    1  UNL11      -0.0365
     21 C          -1.8226    0.3645   -3.5618 C.ar    1  UNL11      -0.0598
     22 C          -1.4041   -0.8337   -4.0999 C.ar    1  UNL11      -0.0589
     23 C          -0.0474   -1.0307   -4.2445 C.ar    1  UNL11      -0.0246
     24 C           0.8605   -0.0657   -3.8655 C.ar    1  UNL11       0.1456
     25 F           2.1891   -0.2671   -4.0110 F       1  UNL11      -0.2035
     26 C          -0.1704    1.1343   -0.4196 C.ar    1  UNL11      -0.0230
     27 H          -3.3879    0.5858    1.9626 H       1  UNL11       0.1566
     28 H          -5.7969    0.7127    2.0091 H       1  UNL11       0.0652
     29 H          -7.9771   -0.2416    1.3061 H       1  UNL11       0.0619
     30 H          -8.0386   -1.9103   -0.5088 H       1  UNL11       0.0633
     31 H          -5.9440   -2.6114   -1.6029 H       1  UNL11       0.0830
     32 H          -1.2346    0.3046    2.6850 H       1  UNL11       0.0625
     33 H           0.9451    1.2299    3.2597 H       1  UNL11       0.0618
     34 H           2.4450    2.1117    1.5052 H       1  UNL11       0.0637
     35 H           1.6505    2.8480   -3.6793 H       1  UNL11       0.1738
     36 H          -1.3131    2.2300   -2.7684 H       1  UNL11       0.0637
     37 H          -2.8974    0.5471   -3.4358 H       1  UNL11       0.0618
     38 H          -2.1315   -1.5930   -4.3977 H       1  UNL11       0.0618
     39 H           0.2960   -1.9679   -4.6661 H       1  UNL11       0.0647
     40 H          -0.4648    1.1191   -1.4813 H       1  UNL11       0.0645
@<TRIPOS>BOND
     1     1     2    2
     2     2     3   am
     3     2    10    1
     4     3     4    1
     5     3    27    1
     6     4     5   ar
     7     5     6   ar
     8     5    28    1
     9     6     7   ar
    10     6    29    1
    11     7     8   ar
    12     7    30    1
    13     8     9   ar
    14     8    31    1
    15     9     4   ar
    16    10    11   ar
    17    11    12   ar
    18    11    32    1
    19    12    13   ar
    20    12    33    1
    21    13    14   ar
    22    13    34    1
    23    14    15    1
    24    14    26   ar
    25    15    16    2
    26    15    17    2
    27    15    18    1
    28    18    19    1
    29    18    35    1
    30    19    20   ar
    31    20    21   ar
    32    20    36    1
    33    21    22   ar
    34    21    37    1
    35    22    23   ar
    36    22    38    1
    37    23    24   ar
    38    23    39    1
    39    24    25    1
    40    24    19   ar
    41    26    10   ar
    42    26    40    1
