@<TRIPOS>MOLECULE
*****
 30 32 0 0 0
SMALL
GASTEIGER

@<TRIPOS>ATOM
      1 N           3.7077   -2.6026   -0.7943 N.pl3   1  UNL11      -0.3429
      2 C           3.2206   -1.3818   -0.2819 C.ar    1  UNL11       0.1264
      3 C           1.8816   -1.0605   -0.2195 C.ar    1  UNL11       0.0222
      4 C           1.4044    0.1213    0.2762 C.ar    1  UNL11       0.1573
      5 O           0.0478    0.4433    0.3378 O.3     1  UNL11      -0.4849
      6 C          -0.3153    1.8072    0.2269 C.3     1  UNL11       0.1148
      7 C           0.3085    2.5972    1.2967 C.ar    1  UNL11      -0.0090
      8 C          -0.2958    2.8160    2.5190 C.ar    1  UNL11      -0.0553
      9 C           0.3365    3.5715    3.4994 C.ar    1  UNL11      -0.0600
     10 C           1.5812    4.1271    3.2909 C.ar    1  UNL11      -0.0434
     11 C           2.1905    3.9091    2.0641 C.ar    1  UNL11       0.0413
     12 CL          3.7684    4.6146    1.8023 Cl      1  UNL11      -0.0835
     13 C           1.5542    3.1549    1.0915 C.ar    1  UNL11      -0.0370
     14 C           2.3397    1.0351    0.7377 C.ar    1  UNL11       0.1980
     15 N           2.2350    2.2735    1.2809 N.ar    1  UNL11      -0.2119
     16 N           3.4504    2.7007    1.5433 N.ar    1  UNL11       0.0922
     17 N           4.3399    1.7926    1.1937 N.ar    1  UNL11      -0.0607
     18 C           3.6824    0.7281    0.6820 C.ar    1  UNL11       0.3598
     19 N           4.0975   -0.4552    0.1818 N.ar    1  UNL11      -0.1681
     20 H           3.6323   -3.4613   -0.2295 H       1  UNL11       0.1437
     21 H           4.1382   -2.6393   -1.7301 H       1  UNL11       0.1437
     22 H           1.1717   -1.7884   -0.5850 H       1  UNL11       0.0689
     23 H          -1.4214    1.9126    0.1979 H       1  UNL11       0.0748
     24 H           0.0756    2.1763   -0.7390 H       1  UNL11       0.0748
     25 H          -1.2652    2.3925    2.7029 H       1  UNL11       0.0621
     26 H          -0.1268    3.7544    4.4718 H       1  UNL11       0.0618
     27 H           2.0672    4.7189    4.0701 H       1  UNL11       0.0632
     28 H           2.0773    3.0096    0.1344 H       1  UNL11       0.0636
     29 H           5.3979    1.8305    1.2739 H       1  UNL11       0.4931
     30 H           1.3984    2.7647    1.4487 H       1  UNL11       0.1948
@<TRIPOS>BOND
     1     1     2    1
     2     1    20    1
     3     1    21    1
     4     2     3   ar
     5     3     4   ar
     6     3    22    1
     7     4     5    1
     8     4    14   ar
     9     5     6    1
    10     6     7    1
    11     6    23    1
    12     6    24    1
    13     7     8   ar
    14     8     9   ar
    15     8    25    1
    16     9    10   ar
    17     9    26    1
    18    10    11   ar
    19    10    27    1
    20    11    12    1
    21    11    13   ar
    22    13     7   ar
    23    13    28    1
    24    14    15   ar
    25    15    16   ar
    26    16    17   ar
    27    17    18   ar
    28    17    29    1
    29    18    19   ar
    30    18    14   ar
    31    19     2   ar
    32    15    30    1
@<TRIPOS>MOLECULE
*****
 30 32 0 0 0
SMALL
GASTEIGER

@<TRIPOS>ATOM
      1 N           3.7077   -2.6026   -0.7943 N.pl3   1  UNL11      -0.3429
      2 C           3.2206   -1.3818   -0.2819 C.ar    1  UNL11       0.1264
      3 C           1.8816   -1.0605   -0.2195 C.ar    1  UNL11       0.0222
      4 C           1.4044    0.1213    0.2762 C.ar    1  UNL11       0.1573
      5 O           0.0478    0.4433    0.3378 O.3     1  UNL11      -0.4849
      6 C          -0.3097    1.7100    0.8596 C.3     1  UNL11       0.1148
      7 C          -0.5211    1.6305    2.3111 C.ar    1  UNL11      -0.0090
      8 C          -1.7495    1.3524    2.8772 C.ar    1  UNL11      -0.0553
      9 C          -1.8978    1.2883    4.2577 C.ar    1  UNL11      -0.0600
     10 C          -0.8328    1.4983    5.1079 C.ar    1  UNL11      -0.0434
     11 C           0.4023    1.7780    4.5421 C.ar    1  UNL11       0.0413
     12 CL          1.7508    2.0440    5.6222 Cl      1  UNL11      -0.0835
     13 C           0.5427    1.8403    3.1651 C.ar    1  UNL11      -0.0370
     14 C           2.3397    1.0351    0.7377 C.ar    1  UNL11       0.1980
     15 N           2.2350    2.2735    1.2809 N.ar    1  UNL11      -0.2119
     16 N           3.4504    2.7007    1.5433 N.ar    1  UNL11       0.0922
     17 N           4.3399    1.7926    1.1937 N.ar    1  UNL11      -0.0607
     18 C           3.6824    0.7281    0.6820 C.ar    1  UNL11       0.3598
     19 N           4.0975   -0.4552    0.1818 N.ar    1  UNL11      -0.1681
     20 H           3.6323   -3.4613   -0.2295 H       1  UNL11       0.1437
     21 H           4.1382   -2.6393   -1.7301 H       1  UNL11       0.1437
     22 H           1.1717   -1.7884   -0.5850 H       1  UNL11       0.0689
     23 H          -1.1875    2.1197    0.3148 H       1  UNL11       0.0748
     24 H           0.5391    2.3944    0.6776 H       1  UNL11       0.0748
     25 H          -2.5927    1.1853    2.2337 H       1  UNL11       0.0621
     26 H          -2.8620    1.0694    4.7224 H       1  UNL11       0.0618
     27 H          -0.9631    1.4450    6.1913 H       1  UNL11       0.0632
     28 H           1.5420    2.0653    2.7632 H       1  UNL11       0.0636
     29 H           5.3979    1.8305    1.2739 H       1  UNL11       0.4931
     30 H           1.3984    2.7647    1.4487 H       1  UNL11       0.1948
@<TRIPOS>BOND
     1     1     2    1
     2     1    20    1
     3     1    21    1
     4     2     3   ar
     5     3     4   ar
     6     3    22    1
     7     4     5    1
     8     4    14   ar
     9     5     6    1
    10     6     7    1
    11     6    23    1
    12     6    24    1
    13     7     8   ar
    14     8     9   ar
    15     8    25    1
    16     9    10   ar
    17     9    26    1
    18    10    11   ar
    19    10    27    1
    20    11    12    1
    21    11    13   ar
    22    13     7   ar
    23    13    28    1
    24    14    15   ar
    25    15    16   ar
    26    16    17   ar
    27    17    18   ar
    28    17    29    1
    29    18    19   ar
    30    18    14   ar
    31    19     2   ar
    32    15    30    1
@<TRIPOS>MOLECULE
*****
 30 32 0 0 0
SMALL
GASTEIGER

@<TRIPOS>ATOM
      1 N           3.7077   -2.6026   -0.7943 N.pl3   1  UNL11      -0.3429
      2 C           3.2206   -1.3818   -0.2819 C.ar    1  UNL11       0.1264
      3 C           1.8816   -1.0605   -0.2195 C.ar    1  UNL11       0.0222
      4 C           1.4044    0.1213    0.2762 C.ar    1  UNL11       0.1573
      5 O           0.0478    0.4433    0.3378 O.3     1  UNL11      -0.4849
      6 C          -0.3153    1.8072    0.2269 C.3     1  UNL11       0.1148
      7 C          -1.0307    2.2516    1.4304 C.ar    1  UNL11      -0.0090
      8 C          -0.4669    2.2292    2.6907 C.ar    1  UNL11      -0.0553
      9 C          -1.1861    2.6608    3.7990 C.ar    1  UNL11      -0.0600
     10 C          -2.4797    3.1241    3.6835 C.ar    1  UNL11      -0.0434
     11 C          -3.0487    3.1476    2.4188 C.ar    1  UNL11       0.0413
     12 CL         -4.6888    3.7353    2.2751 Cl      1  UNL11      -0.0835
     13 C          -2.3256    2.7158    1.3185 C.ar    1  UNL11      -0.0370
     14 C           2.3397    1.0351    0.7377 C.ar    1  UNL11       0.1980
     15 N           2.2350    2.2735    1.2809 N.ar    1  UNL11      -0.2119
     16 N           3.4504    2.7007    1.5433 N.ar    1  UNL11       0.0922
     17 N           4.3399    1.7926    1.1937 N.ar    1  UNL11      -0.0607
     18 C           3.6824    0.7281    0.6820 C.ar    1  UNL11       0.3598
     19 N           4.0975   -0.4552    0.1818 N.ar    1  UNL11      -0.1681
     20 H           3.6323   -3.4613   -0.2295 H       1  UNL11       0.1437
     21 H           4.1382   -2.6393   -1.7301 H       1  UNL11       0.1437
     22 H           1.1717   -1.7884   -0.5850 H       1  UNL11       0.0689
     23 H          -0.8901    1.9803   -0.7086 H       1  UNL11       0.0748
     24 H           0.6189    2.3934    0.1520 H       1  UNL11       0.0748
     25 H           0.5395    1.8723    2.8039 H       1  UNL11       0.0621
     26 H          -0.7557    2.6500    4.8031 H       1  UNL11       0.0618
     27 H          -3.0339    3.4605    4.5629 H       1  UNL11       0.0632
     28 H          -2.8196    2.7534    0.3360 H       1  UNL11       0.0636
     29 H           5.3979    1.8305    1.2739 H       1  UNL11       0.4931
     30 H           1.3984    2.7647    1.4487 H       1  UNL11       0.1948
@<TRIPOS>BOND
     1     1     2    1
     2     1    20    1
     3     1    21    1
     4     2     3   ar
     5     3     4   ar
     6     3    22    1
     7     4     5    1
     8     4    14   ar
     9     5     6    1
    10     6     7    1
    11     6    23    1
    12     6    24    1
    13     7     8   ar
    14     8     9   ar
    15     8    25    1
    16     9    10   ar
    17     9    26    1
    18    10    11   ar
    19    10    27    1
    20    11    12    1
    21    11    13   ar
    22    13     7   ar
    23    13    28    1
    24    14    15   ar
    25    15    16   ar
    26    16    17   ar
    27    17    18   ar
    28    17    29    1
    29    18    19   ar
    30    18    14   ar
    31    19     2   ar
    32    15    30    1
@<TRIPOS>MOLECULE
*****
 30 32 0 0 0
SMALL
GASTEIGER

@<TRIPOS>ATOM
      1 N           3.7077   -2.6026   -0.7943 N.pl3   1  UNL11      -0.3429
      2 C           3.2206   -1.3818   -0.2819 C.ar    1  UNL11       0.1264
      3 C           1.8816   -1.0605   -0.2195 C.ar    1  UNL11       0.0222
      4 C           1.4044    0.1213    0.2762 C.ar    1  UNL11       0.1573
      5 O           0.0478    0.4433    0.3378 O.3     1  UNL11      -0.4849
      6 C          -0.8785   -0.6163    0.4919 C.3     1  UNL11       0.1148
      7 C          -0.7671   -1.5669   -0.6224 C.ar    1  UNL11      -0.0090
      8 C          -1.5042   -1.4522   -1.7843 C.ar    1  UNL11      -0.0553
      9 C          -1.3623   -2.3787   -2.8106 C.ar    1  UNL11      -0.0600
     10 C          -0.4872   -3.4394   -2.7086 C.ar    1  UNL11      -0.0434
     11 C           0.2545   -3.5573   -1.5425 C.ar    1  UNL11       0.0413
     12 CL          1.3632   -4.9030   -1.4157 Cl      1  UNL11      -0.0835
     13 C           0.1078   -2.6298   -0.5237 C.ar    1  UNL11      -0.0370
     14 C           2.3397    1.0351    0.7377 C.ar    1  UNL11       0.1980
     15 N           2.2350    2.2735    1.2809 N.ar    1  UNL11      -0.2119
     16 N           3.4504    2.7007    1.5433 N.ar    1  UNL11       0.0922
     17 N           4.3399    1.7926    1.1937 N.ar    1  UNL11      -0.0607
     18 C           3.6824    0.7281    0.6820 C.ar    1  UNL11       0.3598
     19 N           4.0975   -0.4552    0.1818 N.ar    1  UNL11      -0.1681
     20 H           3.6323   -3.4613   -0.2295 H       1  UNL11       0.1437
     21 H           4.1382   -2.6393   -1.7301 H       1  UNL11       0.1437
     22 H           1.1717   -1.7884   -0.5850 H       1  UNL11       0.0689
     23 H          -1.9074   -0.2158    0.6197 H       1  UNL11       0.0748
     24 H          -0.6163   -1.1523    1.4224 H       1  UNL11       0.0748
     25 H          -2.1918   -0.6336   -1.8852 H       1  UNL11       0.0621
     26 H          -1.9373   -2.3032   -3.7365 H       1  UNL11       0.0618
     27 H          -0.3853   -4.1607   -3.5228 H       1  UNL11       0.0632
     28 H           0.7178   -2.7653    0.3821 H       1  UNL11       0.0636
     29 H           5.3979    1.8305    1.2739 H       1  UNL11       0.4931
     30 H           1.3984    2.7647    1.4487 H       1  UNL11       0.1948
@<TRIPOS>BOND
     1     1     2    1
     2     1    20    1
     3     1    21    1
     4     2     3   ar
     5     3     4   ar
     6     3    22    1
     7     4     5    1
     8     4    14   ar
     9     5     6    1
    10     6     7    1
    11     6    23    1
    12     6    24    1
    13     7     8   ar
    14     8     9   ar
    15     8    25    1
    16     9    10   ar
    17     9    26    1
    18    10    11   ar
    19    10    27    1
    20    11    12    1
    21    11    13   ar
    22    13     7   ar
    23    13    28    1
    24    14    15   ar
    25    15    16   ar
    26    16    17   ar
    27    17    18   ar
    28    17    29    1
    29    18    19   ar
    30    18    14   ar
    31    19     2   ar
    32    15    30    1
@<TRIPOS>MOLECULE
*****
 30 32 0 0 0
SMALL
GASTEIGER

@<TRIPOS>ATOM
      1 N           3.7077   -2.6026   -0.7943 N.pl3   1  UNL11      -0.3429
      2 C           3.2206   -1.3818   -0.2819 C.ar    1  UNL11       0.1264
      3 C           1.8816   -1.0605   -0.2195 C.ar    1  UNL11       0.0222
      4 C           1.4044    0.1213    0.2762 C.ar    1  UNL11       0.1573
      5 O           0.0478    0.4433    0.3378 O.3     1  UNL11      -0.4849
      6 C          -0.8785   -0.6163    0.4919 C.3     1  UNL11       0.1148
      7 C          -1.3152   -1.1163   -0.8185 C.ar    1  UNL11      -0.0090
      8 C          -2.6340   -1.0994   -1.2276 C.ar    1  UNL11      -0.0553
      9 C          -2.9964   -1.5847   -2.4786 C.ar    1  UNL11      -0.0600
     10 C          -2.0607   -2.0976   -3.3519 C.ar    1  UNL11      -0.0434
     11 C          -0.7353   -2.1160   -2.9436 C.ar    1  UNL11       0.0413
     12 CL          0.4490   -2.7667   -4.0526 Cl      1  UNL11      -0.0835
     13 C          -0.3813   -1.6304   -1.6951 C.ar    1  UNL11      -0.0370
     14 C           2.3397    1.0351    0.7377 C.ar    1  UNL11       0.1980
     15 N           2.2350    2.2735    1.2809 N.ar    1  UNL11      -0.2119
     16 N           3.4504    2.7007    1.5433 N.ar    1  UNL11       0.0922
     17 N           4.3399    1.7926    1.1937 N.ar    1  UNL11      -0.0607
     18 C           3.6824    0.7281    0.6820 C.ar    1  UNL11       0.3598
     19 N           4.0975   -0.4552    0.1818 N.ar    1  UNL11      -0.1681
     20 H           3.6323   -3.4613   -0.2295 H       1  UNL11       0.1437
     21 H           4.1382   -2.6393   -1.7301 H       1  UNL11       0.1437
     22 H           1.1717   -1.7884   -0.5850 H       1  UNL11       0.0689
     23 H          -1.7244   -0.3001    1.1399 H       1  UNL11       0.0748
     24 H          -0.3558   -1.4398    1.0120 H       1  UNL11       0.0748
     25 H          -3.3794   -0.7043   -0.5634 H       1  UNL11       0.0621
     26 H          -4.0347   -1.5789   -2.8184 H       1  UNL11       0.0618
     27 H          -2.3590   -2.4759   -4.3325 H       1  UNL11       0.0632
     28 H           0.6824   -1.6660   -1.4160 H       1  UNL11       0.0636
     29 H           5.3979    1.8305    1.2739 H       1  UNL11       0.4931
     30 H           1.3984    2.7647    1.4487 H       1  UNL11       0.1948
@<TRIPOS>BOND
     1     1     2    1
     2     1    20    1
     3     1    21    1
     4     2     3   ar
     5     3     4   ar
     6     3    22    1
     7     4     5    1
     8     4    14   ar
     9     5     6    1
    10     6     7    1
    11     6    23    1
    12     6    24    1
    13     7     8   ar
    14     8     9   ar
    15     8    25    1
    16     9    10   ar
    17     9    26    1
    18    10    11   ar
    19    10    27    1
    20    11    12    1
    21    11    13   ar
    22    13     7   ar
    23    13    28    1
    24    14    15   ar
    25    15    16   ar
    26    16    17   ar
    27    17    18   ar
    28    17    29    1
    29    18    19   ar
    30    18    14   ar
    31    19     2   ar
    32    15    30    1
@<TRIPOS>MOLECULE
*****
 30 32 0 0 0
SMALL
GASTEIGER

@<TRIPOS>ATOM
      1 N           3.7077   -2.6026   -0.7943 N.pl3   1  UNL11      -0.3429
      2 C           3.2206   -1.3818   -0.2819 C.ar    1  UNL11       0.1264
      3 C           1.8816   -1.0605   -0.2195 C.ar    1  UNL11       0.0222
      4 C           1.4044    0.1213    0.2762 C.ar    1  UNL11       0.1573
      5 O           0.0478    0.4433    0.3378 O.3     1  UNL11      -0.4849
      6 C          -0.8785   -0.6163    0.4919 C.3     1  UNL11       0.1148
      7 C          -2.0642   -0.1633    1.2313 C.ar    1  UNL11      -0.0090
      8 C          -2.8902    0.8472    0.7801 C.ar    1  UNL11      -0.0553
      9 C          -4.0012    1.2397    1.5174 C.ar    1  UNL11      -0.0600
     10 C          -4.3186    0.6401    2.7178 C.ar    1  UNL11      -0.0434
     11 C          -3.4906   -0.3752    3.1736 C.ar    1  UNL11       0.0413
     12 CL         -3.8952   -1.1337    4.6957 Cl      1  UNL11      -0.0835
     13 C          -2.3849   -0.7612    2.4332 C.ar    1  UNL11      -0.0370
     14 C           2.3397    1.0351    0.7377 C.ar    1  UNL11       0.1980
     15 N           2.2350    2.2735    1.2809 N.ar    1  UNL11      -0.2119
     16 N           3.4504    2.7007    1.5433 N.ar    1  UNL11       0.0922
     17 N           4.3399    1.7926    1.1937 N.ar    1  UNL11      -0.0607
     18 C           3.6824    0.7281    0.6820 C.ar    1  UNL11       0.3598
     19 N           4.0975   -0.4552    0.1818 N.ar    1  UNL11      -0.1681
     20 H           3.6323   -3.4613   -0.2295 H       1  UNL11       0.1437
     21 H           4.1382   -2.6393   -1.7301 H       1  UNL11       0.1437
     22 H           1.1717   -1.7884   -0.5850 H       1  UNL11       0.0689
     23 H          -0.3860   -1.4966    0.9586 H       1  UNL11       0.0748
     24 H          -1.2052   -0.9199   -0.5195 H       1  UNL11       0.0748
     25 H          -2.6619    1.3281   -0.1524 H       1  UNL11       0.0621
     26 H          -4.6652    2.0370    1.1755 H       1  UNL11       0.0618
     27 H          -5.1949    0.9581    3.2875 H       1  UNL11       0.0632
     28 H          -1.7581   -1.5711    2.8357 H       1  UNL11       0.0636
     29 H           5.3979    1.8305    1.2739 H       1  UNL11       0.4931
     30 H           1.3984    2.7647    1.4487 H       1  UNL11       0.1948
@<TRIPOS>BOND
     1     1     2    1
     2     1    20    1
     3     1    21    1
     4     2     3   ar
     5     3     4   ar
     6     3    22    1
     7     4     5    1
     8     4    14   ar
     9     5     6    1
    10     6     7    1
    11     6    23    1
    12     6    24    1
    13     7     8   ar
    14     8     9   ar
    15     8    25    1
    16     9    10   ar
    17     9    26    1
    18    10    11   ar
    19    10    27    1
    20    11    12    1
    21    11    13   ar
    22    13     7   ar
    23    13    28    1
    24    14    15   ar
    25    15    16   ar
    26    16    17   ar
    27    17    18   ar
    28    17    29    1
    29    18    19   ar
    30    18    14   ar
    31    19     2   ar
    32    15    30    1
@<TRIPOS>MOLECULE
*****
 30 32 0 0 0
SMALL
GASTEIGER

@<TRIPOS>ATOM
      1 N           3.7077   -2.6026   -0.7943 N.pl3   1  UNL11      -0.3429
      2 C           3.2206   -1.3818   -0.2819 C.ar    1  UNL11       0.1264
      3 C           1.8816   -1.0605   -0.2195 C.ar    1  UNL11       0.0222
      4 C           1.4044    0.1213    0.2762 C.ar    1  UNL11       0.1573
      5 O           0.0478    0.4433    0.3378 O.3     1  UNL11      -0.4849
      6 C          -0.3840    1.2968    1.3816 C.3     1  UNL11       0.1148
      7 C           0.4679    1.1357    2.5674 C.ar    1  UNL11      -0.0090
      8 C           1.1957    2.1730    3.1161 C.ar    1  UNL11      -0.0553
      9 C           1.9878    1.9691    4.2399 C.ar    1  UNL11      -0.0600
     10 C           2.0766    0.7333    4.8450 C.ar    1  UNL11      -0.0434
     11 C           1.3467   -0.3106    4.2960 C.ar    1  UNL11       0.0413
     12 CL          1.4610   -1.8764    5.0649 Cl      1  UNL11      -0.0835
     13 C           0.5592   -0.0999    3.1756 C.ar    1  UNL11      -0.0370
     14 C           2.3397    1.0351    0.7377 C.ar    1  UNL11       0.1980
     15 N           2.2350    2.2735    1.2809 N.ar    1  UNL11      -0.2119
     16 N           3.4504    2.7007    1.5433 N.ar    1  UNL11       0.0922
     17 N           4.3399    1.7926    1.1937 N.ar    1  UNL11      -0.0607
     18 C           3.6824    0.7281    0.6820 C.ar    1  UNL11       0.3598
     19 N           4.0975   -0.4552    0.1818 N.ar    1  UNL11      -0.1681
     20 H           3.6323   -3.4613   -0.2295 H       1  UNL11       0.1437
     21 H           4.1382   -2.6393   -1.7301 H       1  UNL11       0.1437
     22 H           1.1717   -1.7884   -0.5850 H       1  UNL11       0.0689
     23 H          -1.4621    1.1318    1.5960 H       1  UNL11       0.0748
     24 H          -0.2751    2.3373    1.0248 H       1  UNL11       0.0748
     25 H           1.1413    3.1440    2.6610 H       1  UNL11       0.0621
     26 H           2.5700    2.7783    4.6870 H       1  UNL11       0.0618
     27 H           2.7030    0.5865    5.7280 H       1  UNL11       0.0632
     28 H          -0.0014   -0.9586    2.7765 H       1  UNL11       0.0636
     29 H           5.3979    1.8305    1.2739 H       1  UNL11       0.4931
     30 H           1.3984    2.7647    1.4487 H       1  UNL11       0.1948
@<TRIPOS>BOND
     1     1     2    1
     2     1    20    1
     3     1    21    1
     4     2     3   ar
     5     3     4   ar
     6     3    22    1
     7     4     5    1
     8     4    14   ar
     9     5     6    1
    10     6     7    1
    11     6    23    1
    12     6    24    1
    13     7     8   ar
    14     8     9   ar
    15     8    25    1
    16     9    10   ar
    17     9    26    1
    18    10    11   ar
    19    10    27    1
    20    11    12    1
    21    11    13   ar
    22    13     7   ar
    23    13    28    1
    24    14    15   ar
    25    15    16   ar
    26    16    17   ar
    27    17    18   ar
    28    17    29    1
    29    18    19   ar
    30    18    14   ar
    31    19     2   ar
    32    15    30    1
@<TRIPOS>MOLECULE
*****
 30 32 0 0 0
SMALL
GASTEIGER

@<TRIPOS>ATOM
      1 N           3.7077   -2.6026   -0.7943 N.pl3   1  UNL11      -0.3429
      2 C           3.2206   -1.3818   -0.2819 C.ar    1  UNL11       0.1264
      3 C           1.8816   -1.0605   -0.2195 C.ar    1  UNL11       0.0222
      4 C           1.4044    0.1213    0.2762 C.ar    1  UNL11       0.1573
      5 O           0.0478    0.4433    0.3378 O.3     1  UNL11      -0.4849
      6 C          -0.3153    1.8072    0.2269 C.3     1  UNL11       0.1148
      7 C          -1.5452    2.0782    0.9830 C.ar    1  UNL11      -0.0090
      8 C          -2.2209    1.1050    1.6922 C.ar    1  UNL11      -0.0553
      9 C          -3.3816    1.4124    2.3923 C.ar    1  UNL11      -0.0600
     10 C          -3.8987    2.6906    2.4053 C.ar    1  UNL11      -0.0434
     11 C          -3.2222    3.6702    1.6937 C.ar    1  UNL11       0.0413
     12 CL         -3.8799    5.2898    1.7118 Cl      1  UNL11      -0.0835
     13 C          -2.0656    3.3564    0.9982 C.ar    1  UNL11      -0.0370
     14 C           2.3397    1.0351    0.7377 C.ar    1  UNL11       0.1980
     15 N           2.2350    2.2735    1.2809 N.ar    1  UNL11      -0.2119
     16 N           3.4504    2.7007    1.5433 N.ar    1  UNL11       0.0922
     17 N           4.3399    1.7926    1.1937 N.ar    1  UNL11      -0.0607
     18 C           3.6824    0.7281    0.6820 C.ar    1  UNL11       0.3598
     19 N           4.0975   -0.4552    0.1818 N.ar    1  UNL11      -0.1681
     20 H           3.6323   -3.4613   -0.2295 H       1  UNL11       0.1437
     21 H           4.1382   -2.6393   -1.7301 H       1  UNL11       0.1437
     22 H           1.1717   -1.7884   -0.5850 H       1  UNL11       0.0689
     23 H          -0.3888    2.1029   -0.8420 H       1  UNL11       0.0748
     24 H           0.4984    2.4041    0.6780 H       1  UNL11       0.0748
     25 H          -1.8358    0.1026    1.6959 H       1  UNL11       0.0621
     26 H          -3.9287    0.6550    2.9586 H       1  UNL11       0.0618
     27 H          -4.8120    2.9188    2.9598 H       1  UNL11       0.0632
     28 H          -1.5643    4.1672    0.4486 H       1  UNL11       0.0636
     29 H           5.3979    1.8305    1.2739 H       1  UNL11       0.4931
     30 H           1.3984    2.7647    1.4487 H       1  UNL11       0.1948
@<TRIPOS>BOND
     1     1     2    1
     2     1    20    1
     3     1    21    1
     4     2     3   ar
     5     3     4   ar
     6     3    22    1
     7     4     5    1
     8     4    14   ar
     9     5     6    1
    10     6     7    1
    11     6    23    1
    12     6    24    1
    13     7     8   ar
    14     8     9   ar
    15     8    25    1
    16     9    10   ar
    17     9    26    1
    18    10    11   ar
    19    10    27    1
    20    11    12    1
    21    11    13   ar
    22    13     7   ar
    23    13    28    1
    24    14    15   ar
    25    15    16   ar
    26    16    17   ar
    27    17    18   ar
    28    17    29    1
    29    18    19   ar
    30    18    14   ar
    31    19     2   ar
    32    15    30    1
@<TRIPOS>MOLECULE
*****
 30 32 0 0 0
SMALL
GASTEIGER

@<TRIPOS>ATOM
      1 N           3.7077   -2.6026   -0.7943 N.pl3   1  UNL11      -0.3429
      2 C           3.2206   -1.3818   -0.2819 C.ar    1  UNL11       0.1264
      3 C           1.8816   -1.0605   -0.2195 C.ar    1  UNL11       0.0222
      4 C           1.4044    0.1213    0.2762 C.ar    1  UNL11       0.1573
      5 O           0.0478    0.4433    0.3378 O.3     1  UNL11      -0.4849
      6 C          -0.3153    1.8072    0.2269 C.3     1  UNL11       0.1148
      7 C          -1.1909    2.0166   -0.9339 C.ar    1  UNL11      -0.0090
      8 C          -2.4712    2.5231   -0.8275 C.ar    1  UNL11      -0.0553
      9 C          -3.2607    2.7026   -1.9572 C.ar    1  UNL11      -0.0600
     10 C          -2.7997    2.3845   -3.2172 C.ar    1  UNL11      -0.0434
     11 C          -1.5141    1.8756   -3.3271 C.ar    1  UNL11       0.0413
     12 CL         -0.9320    1.4731   -4.9256 Cl      1  UNL11      -0.0835
     13 C          -0.7327    1.6993   -2.1965 C.ar    1  UNL11      -0.0370
     14 C           2.3397    1.0351    0.7377 C.ar    1  UNL11       0.1980
     15 N           2.2350    2.2735    1.2809 N.ar    1  UNL11      -0.2119
     16 N           3.4504    2.7007    1.5433 N.ar    1  UNL11       0.0922
     17 N           4.3399    1.7926    1.1937 N.ar    1  UNL11      -0.0607
     18 C           3.6824    0.7281    0.6820 C.ar    1  UNL11       0.3598
     19 N           4.0975   -0.4552    0.1818 N.ar    1  UNL11      -0.1681
     20 H           3.6323   -3.4613   -0.2295 H       1  UNL11       0.1437
     21 H           4.1382   -2.6393   -1.7301 H       1  UNL11       0.1437
     22 H           1.1717   -1.7884   -0.5850 H       1  UNL11       0.0689
     23 H           0.5917    2.4493    0.2079 H       1  UNL11       0.0748
     24 H          -0.8871    2.0724    1.1350 H       1  UNL11       0.0748
     25 H          -2.8505    2.7777    0.1442 H       1  UNL11       0.0621
     26 H          -4.2754    3.1021   -1.8914 H       1  UNL11       0.0618
     27 H          -3.4307    2.5306   -4.0971 H       1  UNL11       0.0632
     28 H           0.2804    1.2926   -2.3342 H       1  UNL11       0.0636
     29 H           5.3979    1.8305    1.2739 H       1  UNL11       0.4931
     30 H           1.3984    2.7647    1.4487 H       1  UNL11       0.1948
@<TRIPOS>BOND
     1     1     2    1
     2     1    20    1
     3     1    21    1
     4     2     3   ar
     5     3     4   ar
     6     3    22    1
     7     4     5    1
     8     4    14   ar
     9     5     6    1
    10     6     7    1
    11     6    23    1
    12     6    24    1
    13     7     8   ar
    14     8     9   ar
    15     8    25    1
    16     9    10   ar
    17     9    26    1
    18    10    11   ar
    19    10    27    1
    20    11    12    1
    21    11    13   ar
    22    13     7   ar
    23    13    28    1
    24    14    15   ar
    25    15    16   ar
    26    16    17   ar
    27    17    18   ar
    28    17    29    1
    29    18    19   ar
    30    18    14   ar
    31    19     2   ar
    32    15    30    1
@<TRIPOS>MOLECULE
*****
 30 32 0 0 0
SMALL
GASTEIGER

@<TRIPOS>ATOM
      1 N           3.7077   -2.6026   -0.7943 N.pl3   1  UNL11      -0.3429
      2 C           3.2206   -1.3818   -0.2819 C.ar    1  UNL11       0.1264
      3 C           1.8816   -1.0605   -0.2195 C.ar    1  UNL11       0.0222
      4 C           1.4044    0.1213    0.2762 C.ar    1  UNL11       0.1573
      5 O           0.0478    0.4433    0.3378 O.3     1  UNL11      -0.4849
      6 C          -0.3153    1.8072    0.2269 C.3     1  UNL11       0.1148
      7 C          -1.1909    2.0166   -0.9339 C.ar    1  UNL11      -0.0090
      8 C          -1.6838    3.2567   -1.2891 C.ar    1  UNL11      -0.0553
      9 C          -2.5096    3.4025   -2.3975 C.ar    1  UNL11      -0.0600
     10 C          -2.8655    2.3234   -3.1786 C.ar    1  UNL11      -0.0434
     11 C          -2.3720    1.0765   -2.8241 C.ar    1  UNL11       0.0413
     12 CL         -2.8247   -0.2900   -3.8160 Cl      1  UNL11      -0.0835
     13 C          -1.5492    0.9387   -1.7179 C.ar    1  UNL11      -0.0370
     14 C           2.3397    1.0351    0.7377 C.ar    1  UNL11       0.1980
     15 N           2.2350    2.2735    1.2809 N.ar    1  UNL11      -0.2119
     16 N           3.4504    2.7007    1.5433 N.ar    1  UNL11       0.0922
     17 N           4.3399    1.7926    1.1937 N.ar    1  UNL11      -0.0607
     18 C           3.6824    0.7281    0.6820 C.ar    1  UNL11       0.3598
     19 N           4.0975   -0.4552    0.1818 N.ar    1  UNL11      -0.1681
     20 H           3.6323   -3.4613   -0.2295 H       1  UNL11       0.1437
     21 H           4.1382   -2.6393   -1.7301 H       1  UNL11       0.1437
     22 H           1.1717   -1.7884   -0.5850 H       1  UNL11       0.0689
     23 H           0.5917    2.4493    0.2079 H       1  UNL11       0.0748
     24 H          -0.8871    2.0724    1.1350 H       1  UNL11       0.0748
     25 H          -1.4193    4.1110   -0.6949 H       1  UNL11       0.0621
     26 H          -2.9083    4.3758   -2.6929 H       1  UNL11       0.0618
     27 H          -3.5154    2.4518   -4.0473 H       1  UNL11       0.0632
     28 H          -1.1825   -0.0703   -1.4765 H       1  UNL11       0.0636
     29 H           5.3979    1.8305    1.2739 H       1  UNL11       0.4931
     30 H           1.3984    2.7647    1.4487 H       1  UNL11       0.1948
@<TRIPOS>BOND
     1     1     2    1
     2     1    20    1
     3     1    21    1
     4     2     3   ar
     5     3     4   ar
     6     3    22    1
     7     4     5    1
     8     4    14   ar
     9     5     6    1
    10     6     7    1
    11     6    23    1
    12     6    24    1
    13     7     8   ar
    14     8     9   ar
    15     8    25    1
    16     9    10   ar
    17     9    26    1
    18    10    11   ar
    19    10    27    1
    20    11    12    1
    21    11    13   ar
    22    13     7   ar
    23    13    28    1
    24    14    15   ar
    25    15    16   ar
    26    16    17   ar
    27    17    18   ar
    28    17    29    1
    29    18    19   ar
    30    18    14   ar
    31    19     2   ar
    32    15    30    1
@<TRIPOS>MOLECULE
*****
 30 32 0 0 0
SMALL
GASTEIGER

@<TRIPOS>ATOM
      1 N           3.7077   -2.6026   -0.7943 N.pl3   1  UNL11      -0.3429
      2 C           3.2206   -1.3818   -0.2819 C.ar    1  UNL11       0.1264
      3 C           1.8816   -1.0605   -0.2195 C.ar    1  UNL11       0.0222
      4 C           1.4044    0.1213    0.2762 C.ar    1  UNL11       0.1573
      5 O           0.0478    0.4433    0.3378 O.3     1  UNL11      -0.4849
      6 C          -0.3153    1.8072    0.2269 C.3     1  UNL11       0.1148
      7 C          -1.6387    1.9411   -0.3966 C.ar    1  UNL11      -0.0090
      8 C          -2.3912    0.8567   -0.8021 C.ar    1  UNL11      -0.0553
      9 C          -3.6389    1.0364   -1.3876 C.ar    1  UNL11      -0.0600
     10 C          -4.1688    2.2942   -1.5844 C.ar    1  UNL11      -0.0434
     11 C          -3.4150    3.3853   -1.1781 C.ar    1  UNL11       0.0413
     12 CL         -4.0890    4.9787   -1.4287 Cl      1  UNL11      -0.0835
     13 C          -2.1720    3.1985   -0.5951 C.ar    1  UNL11      -0.0370
     14 C           2.3397    1.0351    0.7377 C.ar    1  UNL11       0.1980
     15 N           2.2350    2.2735    1.2809 N.ar    1  UNL11      -0.2119
     16 N           3.4504    2.7007    1.5433 N.ar    1  UNL11       0.0922
     17 N           4.3399    1.7926    1.1937 N.ar    1  UNL11      -0.0607
     18 C           3.6824    0.7281    0.6820 C.ar    1  UNL11       0.3598
     19 N           4.0975   -0.4552    0.1818 N.ar    1  UNL11      -0.1681
     20 H           3.6323   -3.4613   -0.2295 H       1  UNL11       0.1437
     21 H           4.1382   -2.6393   -1.7301 H       1  UNL11       0.1437
     22 H           1.1717   -1.7884   -0.5850 H       1  UNL11       0.0689
     23 H           0.4758    2.3766   -0.3073 H       1  UNL11       0.0748
     24 H          -0.3803    2.2168    1.2515 H       1  UNL11       0.0748
     25 H          -1.9980   -0.1320   -0.6584 H       1  UNL11       0.0621
     26 H          -4.2477    0.1900   -1.7142 H       1  UNL11       0.0618
     27 H          -5.1509    2.4215   -2.0458 H       1  UNL11       0.0632
     28 H          -1.6115    4.0946   -0.2892 H       1  UNL11       0.0636
     29 H           5.3979    1.8305    1.2739 H       1  UNL11       0.4931
     30 H           1.3984    2.7647    1.4487 H       1  UNL11       0.1948
@<TRIPOS>BOND
     1     1     2    1
     2     1    20    1
     3     1    21    1
     4     2     3   ar
     5     3     4   ar
     6     3    22    1
     7     4     5    1
     8     4    14   ar
     9     5     6    1
    10     6     7    1
    11     6    23    1
    12     6    24    1
    13     7     8   ar
    14     8     9   ar
    15     8    25    1
    16     9    10   ar
    17     9    26    1
    18    10    11   ar
    19    10    27    1
    20    11    12    1
    21    11    13   ar
    22    13     7   ar
    23    13    28    1
    24    14    15   ar
    25    15    16   ar
    26    16    17   ar
    27    17    18   ar
    28    17    29    1
    29    18    19   ar
    30    18    14   ar
    31    19     2   ar
    32    15    30    1
@<TRIPOS>MOLECULE
*****
 30 32 0 0 0
SMALL
GASTEIGER

@<TRIPOS>ATOM
      1 N           3.7077   -2.6026   -0.7943 N.pl3   1  UNL11      -0.3429
      2 C           3.2206   -1.3818   -0.2819 C.ar    1  UNL11       0.1264
      3 C           1.8816   -1.0605   -0.2195 C.ar    1  UNL11       0.0222
      4 C           1.4044    0.1213    0.2762 C.ar    1  UNL11       0.1573
      5 O           0.0478    0.4433    0.3378 O.3     1  UNL11      -0.4849
      6 C          -0.8112   -0.1166   -0.6384 C.3     1  UNL11       0.1148
      7 C          -0.0543   -0.9666   -1.5671 C.ar    1  UNL11      -0.0090
      8 C          -0.6404   -1.6263   -2.6293 C.ar    1  UNL11      -0.0553
      9 C           0.1200   -2.4197   -3.4802 C.ar    1  UNL11      -0.0600
     10 C           1.4777   -2.5773   -3.2979 C.ar    1  UNL11      -0.0434
     11 C           2.0691   -1.9160   -2.2317 C.ar    1  UNL11       0.0413
     12 CL          3.7904   -2.1175   -2.0028 Cl      1  UNL11      -0.0835
     13 C           1.3047   -1.1267   -1.3876 C.ar    1  UNL11      -0.0370
     14 C           2.3397    1.0351    0.7377 C.ar    1  UNL11       0.1980
     15 N           2.2350    2.2735    1.2809 N.ar    1  UNL11      -0.2119
     16 N           3.4504    2.7007    1.5433 N.ar    1  UNL11       0.0922
     17 N           4.3399    1.7926    1.1937 N.ar    1  UNL11      -0.0607
     18 C           3.6824    0.7281    0.6820 C.ar    1  UNL11       0.3598
     19 N           4.0975   -0.4552    0.1818 N.ar    1  UNL11      -0.1681
     20 H           3.6323   -3.4613   -0.2295 H       1  UNL11       0.1437
     21 H           4.1382   -2.6393   -1.7301 H       1  UNL11       0.1437
     22 H           1.1717   -1.7884   -0.5850 H       1  UNL11       0.0689
     23 H          -1.3865    0.6833   -1.1528 H       1  UNL11       0.0748
     24 H          -1.5400   -0.7576   -0.1095 H       1  UNL11       0.0748
     25 H          -1.6965   -1.5176   -2.7901 H       1  UNL11       0.0621
     26 H          -0.3271   -2.9484   -4.3253 H       1  UNL11       0.0618
     27 H           2.0638   -3.2039   -3.9743 H       1  UNL11       0.0632
     28 H           1.8186   -0.6220   -0.5557 H       1  UNL11       0.0636
     29 H           5.3979    1.8305    1.2739 H       1  UNL11       0.4931
     30 H           1.3984    2.7647    1.4487 H       1  UNL11       0.1948
@<TRIPOS>BOND
     1     1     2    1
     2     1    20    1
     3     1    21    1
     4     2     3   ar
     5     3     4   ar
     6     3    22    1
     7     4     5    1
     8     4    14   ar
     9     5     6    1
    10     6     7    1
    11     6    23    1
    12     6    24    1
    13     7     8   ar
    14     8     9   ar
    15     8    25    1
    16     9    10   ar
    17     9    26    1
    18    10    11   ar
    19    10    27    1
    20    11    12    1
    21    11    13   ar
    22    13     7   ar
    23    13    28    1
    24    14    15   ar
    25    15    16   ar
    26    16    17   ar
    27    17    18   ar
    28    17    29    1
    29    18    19   ar
    30    18    14   ar
    31    19     2   ar
    32    15    30    1
@<TRIPOS>MOLECULE
*****
 30 32 0 0 0
SMALL
GASTEIGER

@<TRIPOS>ATOM
      1 N           3.7077   -2.6026   -0.7943 N.pl3   1  UNL11      -0.3429
      2 C           3.2206   -1.3818   -0.2819 C.ar    1  UNL11       0.1264
      3 C           1.8816   -1.0605   -0.2195 C.ar    1  UNL11       0.0222
      4 C           1.4044    0.1213    0.2762 C.ar    1  UNL11       0.1573
      5 O           0.0478    0.4433    0.3378 O.3     1  UNL11      -0.4849
      6 C          -0.8112   -0.1166   -0.6384 C.3     1  UNL11       0.1148
      7 C          -1.8500   -0.9383   -0.0033 C.ar    1  UNL11      -0.0090
      8 C          -1.9392   -1.1118    1.3638 C.ar    1  UNL11      -0.0553
      9 C          -2.9417   -1.9001    1.9163 C.ar    1  UNL11      -0.0600
     10 C          -3.8780   -2.5342    1.1272 C.ar    1  UNL11      -0.0434
     11 C          -3.7908   -2.3618   -0.2464 C.ar    1  UNL11       0.0413
     12 CL         -4.9789   -3.1667   -1.2446 Cl      1  UNL11      -0.0835
     13 C          -2.7887   -1.5744   -0.7901 C.ar    1  UNL11      -0.0370
     14 C           2.3397    1.0351    0.7377 C.ar    1  UNL11       0.1980
     15 N           2.2350    2.2735    1.2809 N.ar    1  UNL11      -0.2119
     16 N           3.4504    2.7007    1.5433 N.ar    1  UNL11       0.0922
     17 N           4.3399    1.7926    1.1937 N.ar    1  UNL11      -0.0607
     18 C           3.6824    0.7281    0.6820 C.ar    1  UNL11       0.3598
     19 N           4.0975   -0.4552    0.1818 N.ar    1  UNL11      -0.1681
     20 H           3.6323   -3.4613   -0.2295 H       1  UNL11       0.1437
     21 H           4.1382   -2.6393   -1.7301 H       1  UNL11       0.1437
     22 H           1.1717   -1.7884   -0.5850 H       1  UNL11       0.0689
     23 H          -0.2224   -0.6731   -1.3993 H       1  UNL11       0.0748
     24 H          -1.3120    0.7208   -1.1580 H       1  UNL11       0.0748
     25 H          -1.2205   -0.6271    1.9974 H       1  UNL11       0.0621
     26 H          -3.0272   -2.0481    2.9954 H       1  UNL11       0.0618
     27 H          -4.6610   -3.1511    1.5743 H       1  UNL11       0.0632
     28 H          -2.7604   -1.4677   -1.8849 H       1  UNL11       0.0636
     29 H           5.3979    1.8305    1.2739 H       1  UNL11       0.4931
     30 H           1.3984    2.7647    1.4487 H       1  UNL11       0.1948
@<TRIPOS>BOND
     1     1     2    1
     2     1    20    1
     3     1    21    1
     4     2     3   ar
     5     3     4   ar
     6     3    22    1
     7     4     5    1
     8     4    14   ar
     9     5     6    1
    10     6     7    1
    11     6    23    1
    12     6    24    1
    13     7     8   ar
    14     8     9   ar
    15     8    25    1
    16     9    10   ar
    17     9    26    1
    18    10    11   ar
    19    10    27    1
    20    11    12    1
    21    11    13   ar
    22    13     7   ar
    23    13    28    1
    24    14    15   ar
    25    15    16   ar
    26    16    17   ar
    27    17    18   ar
    28    17    29    1
    29    18    19   ar
    30    18    14   ar
    31    19     2   ar
    32    15    30    1
@<TRIPOS>MOLECULE
*****
 30 32 0 0 0
SMALL
GASTEIGER

@<TRIPOS>ATOM
      1 N           3.7077   -2.6026   -0.7943 N.pl3   1  UNL11      -0.3429
      2 C           3.2206   -1.3818   -0.2819 C.ar    1  UNL11       0.1264
      3 C           1.8816   -1.0605   -0.2195 C.ar    1  UNL11       0.0222
      4 C           1.4044    0.1213    0.2762 C.ar    1  UNL11       0.1573
      5 O           0.0478    0.4433    0.3378 O.3     1  UNL11      -0.4849
      6 C          -0.8785   -0.6163    0.4919 C.3     1  UNL11       0.1148
      7 C          -2.1571   -0.2830   -0.1499 C.ar    1  UNL11      -0.0090
      8 C          -2.3800    0.9122   -0.8046 C.ar    1  UNL11      -0.0553
      9 C          -3.6088    1.1801   -1.3964 C.ar    1  UNL11      -0.0600
     10 C          -4.6439    0.2702   -1.3528 C.ar    1  UNL11      -0.0434
     11 C          -4.4229   -0.9312   -0.6958 C.ar    1  UNL11       0.0413
     12 CL         -5.7368   -2.0830   -0.6419 Cl      1  UNL11      -0.0835
     13 C          -3.1953   -1.1914   -0.1082 C.ar    1  UNL11      -0.0370
     14 C           2.3397    1.0351    0.7377 C.ar    1  UNL11       0.1980
     15 N           2.2350    2.2735    1.2809 N.ar    1  UNL11      -0.2119
     16 N           3.4504    2.7007    1.5433 N.ar    1  UNL11       0.0922
     17 N           4.3399    1.7926    1.1937 N.ar    1  UNL11      -0.0607
     18 C           3.6824    0.7281    0.6820 C.ar    1  UNL11       0.3598
     19 N           4.0975   -0.4552    0.1818 N.ar    1  UNL11      -0.1681
     20 H           3.6323   -3.4613   -0.2295 H       1  UNL11       0.1437
     21 H           4.1382   -2.6393   -1.7301 H       1  UNL11       0.1437
     22 H           1.1717   -1.7884   -0.5850 H       1  UNL11       0.0689
     23 H          -0.9880   -0.8820    1.5656 H       1  UNL11       0.0748
     24 H          -0.4600   -1.4995   -0.0245 H       1  UNL11       0.0748
     25 H          -1.5877    1.6354   -0.8508 H       1  UNL11       0.0621
     26 H          -3.8024    2.1202   -1.9183 H       1  UNL11       0.0618
     27 H          -5.6049    0.4933   -1.8222 H       1  UNL11       0.0632
     28 H          -3.0678   -2.1582    0.4015 H       1  UNL11       0.0636
     29 H           5.3979    1.8305    1.2739 H       1  UNL11       0.4931
     30 H           1.3984    2.7647    1.4487 H       1  UNL11       0.1948
@<TRIPOS>BOND
     1     1     2    1
     2     1    20    1
     3     1    21    1
     4     2     3   ar
     5     3     4   ar
     6     3    22    1
     7     4     5    1
     8     4    14   ar
     9     5     6    1
    10     6     7    1
    11     6    23    1
    12     6    24    1
    13     7     8   ar
    14     8     9   ar
    15     8    25    1
    16     9    10   ar
    17     9    26    1
    18    10    11   ar
    19    10    27    1
    20    11    12    1
    21    11    13   ar
    22    13     7   ar
    23    13    28    1
    24    14    15   ar
    25    15    16   ar
    26    16    17   ar
    27    17    18   ar
    28    17    29    1
    29    18    19   ar
    30    18    14   ar
    31    19     2   ar
    32    15    30    1
@<TRIPOS>MOLECULE
*****
 30 32 0 0 0
SMALL
GASTEIGER

@<TRIPOS>ATOM
      1 N           3.7077   -2.6026   -0.7943 N.pl3   1  UNL11      -0.3429
      2 C           3.2206   -1.3818   -0.2819 C.ar    1  UNL11       0.1264
      3 C           1.8816   -1.0605   -0.2195 C.ar    1  UNL11       0.0222
      4 C           1.4044    0.1213    0.2762 C.ar    1  UNL11       0.1573
      5 O           0.0478    0.4433    0.3378 O.3     1  UNL11      -0.4849
      6 C          -0.3840    1.2968    1.3816 C.3     1  UNL11       0.1148
      7 C           0.7481    1.6872    2.2324 C.ar    1  UNL11      -0.0090
      8 C           0.6110    2.5047    3.3367 C.ar    1  UNL11      -0.0553
      9 C           1.7144    2.8454    4.1103 C.ar    1  UNL11      -0.0600
     10 C           2.9779    2.3840    3.8070 C.ar    1  UNL11      -0.0434
     11 C           3.1186    1.5627    2.6982 C.ar    1  UNL11       0.0413
     12 CL          4.7215    0.9791    2.3158 Cl      1  UNL11      -0.0835
     13 C           2.0141    1.2272    1.9317 C.ar    1  UNL11      -0.0370
     14 C           2.3397    1.0351    0.7377 C.ar    1  UNL11       0.1980
     15 N           2.2350    2.2735    1.2809 N.ar    1  UNL11      -0.2119
     16 N           3.4504    2.7007    1.5433 N.ar    1  UNL11       0.0922
     17 N           4.3399    1.7926    1.1937 N.ar    1  UNL11      -0.0607
     18 C           3.6824    0.7281    0.6820 C.ar    1  UNL11       0.3598
     19 N           4.0975   -0.4552    0.1818 N.ar    1  UNL11      -0.1681
     20 H           3.6323   -3.4613   -0.2295 H       1  UNL11       0.1437
     21 H           4.1382   -2.6393   -1.7301 H       1  UNL11       0.1437
     22 H           1.1717   -1.7884   -0.5850 H       1  UNL11       0.0689
     23 H          -1.2124    0.8232    1.9517 H       1  UNL11       0.0748
     24 H          -0.7884    2.2131    0.9140 H       1  UNL11       0.0748
     25 H          -0.3640    2.8755    3.5914 H       1  UNL11       0.0621
     26 H           1.6242    3.4908    4.9871 H       1  UNL11       0.0618
     27 H           3.8368    2.6594    4.4234 H       1  UNL11       0.0632
     28 H           2.1757    0.5730    1.0619 H       1  UNL11       0.0636
     29 H           5.3979    1.8305    1.2739 H       1  UNL11       0.4931
     30 H           1.3984    2.7647    1.4487 H       1  UNL11       0.1948
@<TRIPOS>BOND
     1     1     2    1
     2     1    20    1
     3     1    21    1
     4     2     3   ar
     5     3     4   ar
     6     3    22    1
     7     4     5    1
     8     4    14   ar
     9     5     6    1
    10     6     7    1
    11     6    23    1
    12     6    24    1
    13     7     8   ar
    14     8     9   ar
    15     8    25    1
    16     9    10   ar
    17     9    26    1
    18    10    11   ar
    19    10    27    1
    20    11    12    1
    21    11    13   ar
    22    13     7   ar
    23    13    28    1
    24    14    15   ar
    25    15    16   ar
    26    16    17   ar
    27    17    18   ar
    28    17    29    1
    29    18    19   ar
    30    18    14   ar
    31    19     2   ar
    32    15    30    1
@<TRIPOS>MOLECULE
*****
 30 32 0 0 0
SMALL
GASTEIGER

@<TRIPOS>ATOM
      1 N           3.7077   -2.6026   -0.7943 N.pl3   1  UNL11      -0.3429
      2 C           3.2206   -1.3818   -0.2819 C.ar    1  UNL11       0.1264
      3 C           1.8816   -1.0605   -0.2195 C.ar    1  UNL11       0.0222
      4 C           1.4044    0.1213    0.2762 C.ar    1  UNL11       0.1573
      5 O           0.0478    0.4433    0.3378 O.3     1  UNL11      -0.4849
      6 C          -0.3097    1.7100    0.8596 C.3     1  UNL11       0.1148
      7 C           0.1756    1.8571    2.2382 C.ar    1  UNL11      -0.0090
      8 C          -0.4732    2.6250    3.1850 C.ar    1  UNL11      -0.0553
      9 C           0.0269    2.7323    4.4774 C.ar    1  UNL11      -0.0600
     10 C           1.1806    2.0815    4.8606 C.ar    1  UNL11      -0.0434
     11 C           1.8345    1.3096    3.9116 C.ar    1  UNL11       0.0413
     12 CL          3.2969    0.4857    4.3999 Cl      1  UNL11      -0.0835
     13 C           1.3300    1.2072    2.6252 C.ar    1  UNL11      -0.0370
     14 C           2.3397    1.0351    0.7377 C.ar    1  UNL11       0.1980
     15 N           2.2350    2.2735    1.2809 N.ar    1  UNL11      -0.2119
     16 N           3.4504    2.7007    1.5433 N.ar    1  UNL11       0.0922
     17 N           4.3399    1.7926    1.1937 N.ar    1  UNL11      -0.0607
     18 C           3.6824    0.7281    0.6820 C.ar    1  UNL11       0.3598
     19 N           4.0975   -0.4552    0.1818 N.ar    1  UNL11      -0.1681
     20 H           3.6323   -3.4613   -0.2295 H       1  UNL11       0.1437
     21 H           4.1382   -2.6393   -1.7301 H       1  UNL11       0.1437
     22 H           1.1717   -1.7884   -0.5850 H       1  UNL11       0.0689
     23 H          -1.4051    1.8727    0.7652 H       1  UNL11       0.0748
     24 H           0.1913    2.4764    0.2403 H       1  UNL11       0.0748
     25 H          -1.3736    3.1405    2.9084 H       1  UNL11       0.0621
     26 H          -0.4734    3.3351    5.2389 H       1  UNL11       0.0618
     27 H           1.5630    2.1743    5.8798 H       1  UNL11       0.0632
     28 H           1.8837    0.5833    1.9076 H       1  UNL11       0.0636
     29 H           5.3979    1.8305    1.2739 H       1  UNL11       0.4931
     30 H           1.3984    2.7647    1.4487 H       1  UNL11       0.1948
@<TRIPOS>BOND
     1     1     2    1
     2     1    20    1
     3     1    21    1
     4     2     3   ar
     5     3     4   ar
     6     3    22    1
     7     4     5    1
     8     4    14   ar
     9     5     6    1
    10     6     7    1
    11     6    23    1
    12     6    24    1
    13     7     8   ar
    14     8     9   ar
    15     8    25    1
    16     9    10   ar
    17     9    26    1
    18    10    11   ar
    19    10    27    1
    20    11    12    1
    21    11    13   ar
    22    13     7   ar
    23    13    28    1
    24    14    15   ar
    25    15    16   ar
    26    16    17   ar
    27    17    18   ar
    28    17    29    1
    29    18    19   ar
    30    18    14   ar
    31    19     2   ar
    32    15    30    1
@<TRIPOS>MOLECULE
*****
 30 32 0 0 0
SMALL
GASTEIGER

@<TRIPOS>ATOM
      1 N           3.7077   -2.6026   -0.7943 N.pl3   1  UNL11      -0.3429
      2 C           3.2206   -1.3818   -0.2819 C.ar    1  UNL11       0.1264
      3 C           1.8816   -1.0605   -0.2195 C.ar    1  UNL11       0.0222
      4 C           1.4044    0.1213    0.2762 C.ar    1  UNL11       0.1573
      5 O           0.0478    0.4433    0.3378 O.3     1  UNL11      -0.4849
      6 C          -0.3840    1.2968    1.3816 C.3     1  UNL11       0.1148
      7 C           0.6905    2.2181    1.7744 C.ar    1  UNL11      -0.0090
      8 C           0.8620    3.4614    1.1985 C.ar    1  UNL11      -0.0553
      9 C           1.8955    4.2969    1.6056 C.ar    1  UNL11      -0.0600
     10 C           2.7818    3.9195    2.5921 C.ar    1  UNL11      -0.0434
     11 C           2.6121    2.6712    3.1724 C.ar    1  UNL11       0.0413
     12 CL          3.7371    2.1952    4.4228 Cl      1  UNL11      -0.0835
     13 C           1.5795    1.8436    2.7615 C.ar    1  UNL11      -0.0370
     14 C           2.3397    1.0351    0.7377 C.ar    1  UNL11       0.1980
     15 N           2.2350    2.2735    1.2809 N.ar    1  UNL11      -0.2119
     16 N           3.4504    2.7007    1.5433 N.ar    1  UNL11       0.0922
     17 N           4.3399    1.7926    1.1937 N.ar    1  UNL11      -0.0607
     18 C           3.6824    0.7281    0.6820 C.ar    1  UNL11       0.3598
     19 N           4.0975   -0.4552    0.1818 N.ar    1  UNL11      -0.1681
     20 H           3.6323   -3.4613   -0.2295 H       1  UNL11       0.1437
     21 H           4.1382   -2.6393   -1.7301 H       1  UNL11       0.1437
     22 H           1.1717   -1.7884   -0.5850 H       1  UNL11       0.0689
     23 H          -0.7767    0.6997    2.2329 H       1  UNL11       0.0748
     24 H          -1.2223    1.9012    0.9895 H       1  UNL11       0.0748
     25 H           0.1832    3.7757    0.4282 H       1  UNL11       0.0621
     26 H           2.0457    5.2835    1.1610 H       1  UNL11       0.0618
     27 H           3.5898    4.5860    2.9029 H       1  UNL11       0.0632
     28 H           1.4853    0.8628    3.2513 H       1  UNL11       0.0636
     29 H           5.3979    1.8305    1.2739 H       1  UNL11       0.4931
     30 H           1.3984    2.7647    1.4487 H       1  UNL11       0.1948
@<TRIPOS>BOND
     1     1     2    1
     2     1    20    1
     3     1    21    1
     4     2     3   ar
     5     3     4   ar
     6     3    22    1
     7     4     5    1
     8     4    14   ar
     9     5     6    1
    10     6     7    1
    11     6    23    1
    12     6    24    1
    13     7     8   ar
    14     8     9   ar
    15     8    25    1
    16     9    10   ar
    17     9    26    1
    18    10    11   ar
    19    10    27    1
    20    11    12    1
    21    11    13   ar
    22    13     7   ar
    23    13    28    1
    24    14    15   ar
    25    15    16   ar
    26    16    17   ar
    27    17    18   ar
    28    17    29    1
    29    18    19   ar
    30    18    14   ar
    31    19     2   ar
    32    15    30    1
@<TRIPOS>MOLECULE
*****
 30 32 0 0 0
SMALL
GASTEIGER

@<TRIPOS>ATOM
      1 N           3.7077   -2.6026   -0.7943 N.pl3   1  UNL11      -0.3429
      2 C           3.2206   -1.3818   -0.2819 C.ar    1  UNL11       0.1264
      3 C           1.8816   -1.0605   -0.2195 C.ar    1  UNL11       0.0222
      4 C           1.4044    0.1213    0.2762 C.ar    1  UNL11       0.1573
      5 O           0.0478    0.4433    0.3378 O.3     1  UNL11      -0.4849
      6 C          -0.3097    1.7100    0.8596 C.3     1  UNL11       0.1148
      7 C          -1.6233    1.6478    1.5142 C.ar    1  UNL11      -0.0090
      8 C          -2.2247    2.7455    2.0973 C.ar    1  UNL11      -0.0553
      9 C          -3.4699    2.6347    2.7048 C.ar    1  UNL11      -0.0600
     10 C          -4.1469    1.4342    2.7482 C.ar    1  UNL11      -0.0434
     11 C          -3.5451    0.3298    2.1633 C.ar    1  UNL11       0.0413
     12 CL         -4.4053   -1.1910    2.2197 Cl      1  UNL11      -0.0835
     13 C          -2.3036    0.4478    1.5595 C.ar    1  UNL11      -0.0370
     14 C           2.3397    1.0351    0.7377 C.ar    1  UNL11       0.1980
     15 N           2.2350    2.2735    1.2809 N.ar    1  UNL11      -0.2119
     16 N           3.4504    2.7007    1.5433 N.ar    1  UNL11       0.0922
     17 N           4.3399    1.7926    1.1937 N.ar    1  UNL11      -0.0607
     18 C           3.6824    0.7281    0.6820 C.ar    1  UNL11       0.3598
     19 N           4.0975   -0.4552    0.1818 N.ar    1  UNL11      -0.1681
     20 H           3.6323   -3.4613   -0.2295 H       1  UNL11       0.1437
     21 H           4.1382   -2.6393   -1.7301 H       1  UNL11       0.1437
     22 H           1.1717   -1.7884   -0.5850 H       1  UNL11       0.0689
     23 H          -0.2569    2.4852    0.0649 H       1  UNL11       0.0748
     24 H           0.4397    1.9749    1.6278 H       1  UNL11       0.0748
     25 H          -1.7154    3.6905    2.0751 H       1  UNL11       0.0621
     26 H          -3.9603    3.4926    3.1708 H       1  UNL11       0.0618
     27 H          -5.1252    1.3608    3.2289 H       1  UNL11       0.0632
     28 H          -1.8667   -0.4561    1.1091 H       1  UNL11       0.0636
     29 H           5.3979    1.8305    1.2739 H       1  UNL11       0.4931
     30 H           1.3984    2.7647    1.4487 H       1  UNL11       0.1948
@<TRIPOS>BOND
     1     1     2    1
     2     1    20    1
     3     1    21    1
     4     2     3   ar
     5     3     4   ar
     6     3    22    1
     7     4     5    1
     8     4    14   ar
     9     5     6    1
    10     6     7    1
    11     6    23    1
    12     6    24    1
    13     7     8   ar
    14     8     9   ar
    15     8    25    1
    16     9    10   ar
    17     9    26    1
    18    10    11   ar
    19    10    27    1
    20    11    12    1
    21    11    13   ar
    22    13     7   ar
    23    13    28    1
    24    14    15   ar
    25    15    16   ar
    26    16    17   ar
    27    17    18   ar
    28    17    29    1
    29    18    19   ar
    30    18    14   ar
    31    19     2   ar
    32    15    30    1
@<TRIPOS>MOLECULE
*****
 30 32 0 0 0
SMALL
GASTEIGER

@<TRIPOS>ATOM
      1 N           3.7077   -2.6026   -0.7943 N.pl3   1  UNL11      -0.3429
      2 C           3.2206   -1.3818   -0.2819 C.ar    1  UNL11       0.1264
      3 C           1.8816   -1.0605   -0.2195 C.ar    1  UNL11       0.0222
      4 C           1.4044    0.1213    0.2762 C.ar    1  UNL11       0.1573
      5 O           0.0478    0.4433    0.3378 O.3     1  UNL11      -0.4849
      6 C          -0.3840    1.2968    1.3816 C.3     1  UNL11       0.1148
      7 C          -1.8344    1.5165    1.3035 C.ar    1  UNL11      -0.0090
      8 C          -2.3970    2.7671    1.1410 C.ar    1  UNL11      -0.0553
      9 C          -3.7765    2.9224    1.0728 C.ar    1  UNL11      -0.0600
     10 C          -4.6292    1.8427    1.1642 C.ar    1  UNL11      -0.0434
     11 C          -4.0669    0.5853    1.3276 C.ar    1  UNL11       0.0413
     12 CL         -5.1501   -0.7819    1.4433 Cl      1  UNL11      -0.0835
     13 C          -2.6908    0.4381    1.3947 C.ar    1  UNL11      -0.0370
     14 C           2.3397    1.0351    0.7377 C.ar    1  UNL11       0.1980
     15 N           2.2350    2.2735    1.2809 N.ar    1  UNL11      -0.2119
     16 N           3.4504    2.7007    1.5433 N.ar    1  UNL11       0.0922
     17 N           4.3399    1.7926    1.1937 N.ar    1  UNL11      -0.0607
     18 C           3.6824    0.7281    0.6820 C.ar    1  UNL11       0.3598
     19 N           4.0975   -0.4552    0.1818 N.ar    1  UNL11      -0.1681
     20 H           3.6323   -3.4613   -0.2295 H       1  UNL11       0.1437
     21 H           4.1382   -2.6393   -1.7301 H       1  UNL11       0.1437
     22 H           1.1717   -1.7884   -0.5850 H       1  UNL11       0.0689
     23 H           0.1994    2.2428    1.3750 H       1  UNL11       0.0748
     24 H          -0.1697    0.7849    2.3377 H       1  UNL11       0.0748
     25 H          -1.7516    3.6220    1.0674 H       1  UNL11       0.0621
     26 H          -4.2385    3.9041    0.9444 H       1  UNL11       0.0618
     27 H          -5.7119    1.9787    1.1091 H       1  UNL11       0.0632
     28 H          -2.2917   -0.5791    1.5248 H       1  UNL11       0.0636
     29 H           5.3979    1.8305    1.2739 H       1  UNL11       0.4931
     30 H           1.3984    2.7647    1.4487 H       1  UNL11       0.1948
@<TRIPOS>BOND
     1     1     2    1
     2     1    20    1
     3     1    21    1
     4     2     3   ar
     5     3     4   ar
     6     3    22    1
     7     4     5    1
     8     4    14   ar
     9     5     6    1
    10     6     7    1
    11     6    23    1
    12     6    24    1
    13     7     8   ar
    14     8     9   ar
    15     8    25    1
    16     9    10   ar
    17     9    26    1
    18    10    11   ar
    19    10    27    1
    20    11    12    1
    21    11    13   ar
    22    13     7   ar
    23    13    28    1
    24    14    15   ar
    25    15    16   ar
    26    16    17   ar
    27    17    18   ar
    28    17    29    1
    29    18    19   ar
    30    18    14   ar
    31    19     2   ar
    32    15    30    1
@<TRIPOS>MOLECULE
*****
 30 32 0 0 0
SMALL
GASTEIGER

@<TRIPOS>ATOM
      1 N           3.7077   -2.6026   -0.7943 N.pl3   1  UNL11      -0.3429
      2 C           3.2206   -1.3818   -0.2819 C.ar    1  UNL11       0.1264
      3 C           1.8816   -1.0605   -0.2195 C.ar    1  UNL11       0.0222
      4 C           1.4044    0.1213    0.2762 C.ar    1  UNL11       0.1573
      5 O           0.0478    0.4433    0.3378 O.3     1  UNL11      -0.4849
      6 C          -0.3840    1.2968    1.3816 C.3     1  UNL11       0.1148
      7 C           0.2856    2.6013    1.2936 C.ar    1  UNL11      -0.0090
      8 C           1.2033    2.9097    0.3090 C.ar    1  UNL11      -0.0553
      9 C           1.8099    4.1596    0.2691 C.ar    1  UNL11      -0.0600
     10 C           1.5210    5.1316    1.2035 C.ar    1  UNL11      -0.0434
     11 C           0.5997    4.8246    2.1938 C.ar    1  UNL11       0.0413
     12 CL          0.2353    6.0585    3.3772 Cl      1  UNL11      -0.0835
     13 C          -0.0011    3.5765    2.2273 C.ar    1  UNL11      -0.0370
     14 C           2.3397    1.0351    0.7377 C.ar    1  UNL11       0.1980
     15 N           2.2350    2.2735    1.2809 N.ar    1  UNL11      -0.2119
     16 N           3.4504    2.7007    1.5433 N.ar    1  UNL11       0.0922
     17 N           4.3399    1.7926    1.1937 N.ar    1  UNL11      -0.0607
     18 C           3.6824    0.7281    0.6820 C.ar    1  UNL11       0.3598
     19 N           4.0975   -0.4552    0.1818 N.ar    1  UNL11      -0.1681
     20 H           3.6323   -3.4613   -0.2295 H       1  UNL11       0.1437
     21 H           4.1382   -2.6393   -1.7301 H       1  UNL11       0.1437
     22 H           1.1717   -1.7884   -0.5850 H       1  UNL11       0.0689
     23 H          -0.2455    0.8033    2.3679 H       1  UNL11       0.0748
     24 H          -1.4685    1.4626    1.2463 H       1  UNL11       0.0748
     25 H           1.4431    2.1677   -0.4291 H       1  UNL11       0.0621
     26 H           2.5379    4.4206   -0.5027 H       1  UNL11       0.0618
     27 H           2.0050    6.1101    1.1606 H       1  UNL11       0.0632
     28 H          -0.7255    3.3797    3.0319 H       1  UNL11       0.0636
     29 H           5.3979    1.8305    1.2739 H       1  UNL11       0.4931
     30 H           1.3984    2.7647    1.4487 H       1  UNL11       0.1948
@<TRIPOS>BOND
     1     1     2    1
     2     1    20    1
     3     1    21    1
     4     2     3   ar
     5     3     4   ar
     6     3    22    1
     7     4     5    1
     8     4    14   ar
     9     5     6    1
    10     6     7    1
    11     6    23    1
    12     6    24    1
    13     7     8   ar
    14     8     9   ar
    15     8    25    1
    16     9    10   ar
    17     9    26    1
    18    10    11   ar
    19    10    27    1
    20    11    12    1
    21    11    13   ar
    22    13     7   ar
    23    13    28    1
    24    14    15   ar
    25    15    16   ar
    26    16    17   ar
    27    17    18   ar
    28    17    29    1
    29    18    19   ar
    30    18    14   ar
    31    19     2   ar
    32    15    30    1
@<TRIPOS>MOLECULE
*****
 30 32 0 0 0
SMALL
GASTEIGER

@<TRIPOS>ATOM
      1 N           3.7077   -2.6026   -0.7943 N.pl3   1  UNL11      -0.3429
      2 C           3.2206   -1.3818   -0.2819 C.ar    1  UNL11       0.1264
      3 C           1.8816   -1.0605   -0.2195 C.ar    1  UNL11       0.0222
      4 C           1.4044    0.1213    0.2762 C.ar    1  UNL11       0.1573
      5 O           0.0478    0.4433    0.3378 O.3     1  UNL11      -0.4849
      6 C          -0.8785   -0.6163    0.4919 C.3     1  UNL11       0.1148
      7 C          -0.7671   -1.5669   -0.6224 C.ar    1  UNL11      -0.0090
      8 C          -0.4488   -2.8988   -0.4445 C.ar    1  UNL11      -0.0553
      9 C          -0.3554   -3.7587   -1.5325 C.ar    1  UNL11      -0.0600
     10 C          -0.5752   -3.3185   -2.8206 C.ar    1  UNL11      -0.0434
     11 C          -0.8949   -1.9811   -3.0023 C.ar    1  UNL11       0.0413
     12 CL         -1.1730   -1.4255   -4.6363 Cl      1  UNL11      -0.0835
     13 C          -0.9863   -1.1297   -1.9130 C.ar    1  UNL11      -0.0370
     14 C           2.3397    1.0351    0.7377 C.ar    1  UNL11       0.1980
     15 N           2.2350    2.2735    1.2809 N.ar    1  UNL11      -0.2119
     16 N           3.4504    2.7007    1.5433 N.ar    1  UNL11       0.0922
     17 N           4.3399    1.7926    1.1937 N.ar    1  UNL11      -0.0607
     18 C           3.6824    0.7281    0.6820 C.ar    1  UNL11       0.3598
     19 N           4.0975   -0.4552    0.1818 N.ar    1  UNL11      -0.1681
     20 H           3.6323   -3.4613   -0.2295 H       1  UNL11       0.1437
     21 H           4.1382   -2.6393   -1.7301 H       1  UNL11       0.1437
     22 H           1.1717   -1.7884   -0.5850 H       1  UNL11       0.0689
     23 H          -1.9074   -0.2158    0.6197 H       1  UNL11       0.0748
     24 H          -0.6163   -1.1523    1.4224 H       1  UNL11       0.0748
     25 H          -0.2736   -3.2632    0.5502 H       1  UNL11       0.0621
     26 H          -0.1048   -4.8150   -1.4102 H       1  UNL11       0.0618
     27 H          -0.4986   -4.0050   -3.6671 H       1  UNL11       0.0632
     28 H          -1.2427   -0.0774   -2.1072 H       1  UNL11       0.0636
     29 H           5.3979    1.8305    1.2739 H       1  UNL11       0.4931
     30 H           1.3984    2.7647    1.4487 H       1  UNL11       0.1948
@<TRIPOS>BOND
     1     1     2    1
     2     1    20    1
     3     1    21    1
     4     2     3   ar
     5     3     4   ar
     6     3    22    1
     7     4     5    1
     8     4    14   ar
     9     5     6    1
    10     6     7    1
    11     6    23    1
    12     6    24    1
    13     7     8   ar
    14     8     9   ar
    15     8    25    1
    16     9    10   ar
    17     9    26    1
    18    10    11   ar
    19    10    27    1
    20    11    12    1
    21    11    13   ar
    22    13     7   ar
    23    13    28    1
    24    14    15   ar
    25    15    16   ar
    26    16    17   ar
    27    17    18   ar
    28    17    29    1
    29    18    19   ar
    30    18    14   ar
    31    19     2   ar
    32    15    30    1
@<TRIPOS>MOLECULE
*****
 30 32 0 0 0
SMALL
GASTEIGER

@<TRIPOS>ATOM
      1 N           3.7077   -2.6026   -0.7943 N.pl3   1  UNL11      -0.3429
      2 C           3.2206   -1.3818   -0.2819 C.ar    1  UNL11       0.1264
      3 C           1.8816   -1.0605   -0.2195 C.ar    1  UNL11       0.0222
      4 C           1.4044    0.1213    0.2762 C.ar    1  UNL11       0.1573
      5 O           0.0478    0.4433    0.3378 O.3     1  UNL11      -0.4849
      6 C          -0.8112   -0.1166   -0.6384 C.3     1  UNL11       0.1148
      7 C          -1.3506   -1.4025   -0.1765 C.ar    1  UNL11      -0.0090
      8 C          -0.7282   -2.6103   -0.4230 C.ar    1  UNL11      -0.0553
      9 C          -1.2795   -3.8007    0.0359 C.ar    1  UNL11      -0.0600
     10 C          -2.4595   -3.8213    0.7490 C.ar    1  UNL11      -0.0434
     11 C          -3.0870   -2.6097    0.9980 C.ar    1  UNL11       0.0413
     12 CL         -4.5828   -2.6385    1.9022 Cl      1  UNL11      -0.0835
     13 C          -2.5315   -1.4268    0.5374 C.ar    1  UNL11      -0.0370
     14 C           2.3397    1.0351    0.7377 C.ar    1  UNL11       0.1980
     15 N           2.2350    2.2735    1.2809 N.ar    1  UNL11      -0.2119
     16 N           3.4504    2.7007    1.5433 N.ar    1  UNL11       0.0922
     17 N           4.3399    1.7926    1.1937 N.ar    1  UNL11      -0.0607
     18 C           3.6824    0.7281    0.6820 C.ar    1  UNL11       0.3598
     19 N           4.0975   -0.4552    0.1818 N.ar    1  UNL11      -0.1681
     20 H           3.6323   -3.4613   -0.2295 H       1  UNL11       0.1437
     21 H           4.1382   -2.6393   -1.7301 H       1  UNL11       0.1437
     22 H           1.1717   -1.7884   -0.5850 H       1  UNL11       0.0689
     23 H          -0.2893   -0.1911   -1.6169 H       1  UNL11       0.0748
     24 H          -1.6600    0.5792   -0.7706 H       1  UNL11       0.0748
     25 H           0.1919   -2.6176   -0.9765 H       1  UNL11       0.0621
     26 H          -0.8006   -4.7650   -0.1499 H       1  UNL11       0.0618
     27 H          -2.8821   -4.7642    1.1041 H       1  UNL11       0.0632
     28 H          -3.0659   -0.4910    0.7598 H       1  UNL11       0.0636
     29 H           5.3979    1.8305    1.2739 H       1  UNL11       0.4931
     30 H           1.3984    2.7647    1.4487 H       1  UNL11       0.1948
@<TRIPOS>BOND
     1     1     2    1
     2     1    20    1
     3     1    21    1
     4     2     3   ar
     5     3     4   ar
     6     3    22    1
     7     4     5    1
     8     4    14   ar
     9     5     6    1
    10     6     7    1
    11     6    23    1
    12     6    24    1
    13     7     8   ar
    14     8     9   ar
    15     8    25    1
    16     9    10   ar
    17     9    26    1
    18    10    11   ar
    19    10    27    1
    20    11    12    1
    21    11    13   ar
    22    13     7   ar
    23    13    28    1
    24    14    15   ar
    25    15    16   ar
    26    16    17   ar
    27    17    18   ar
    28    17    29    1
    29    18    19   ar
    30    18    14   ar
    31    19     2   ar
    32    15    30    1
@<TRIPOS>MOLECULE
*****
 30 32 0 0 0
SMALL
GASTEIGER

@<TRIPOS>ATOM
      1 N           3.7077   -2.6026   -0.7943 N.pl3   1  UNL11      -0.3429
      2 C           3.2206   -1.3818   -0.2819 C.ar    1  UNL11       0.1264
      3 C           1.8816   -1.0605   -0.2195 C.ar    1  UNL11       0.0222
      4 C           1.4044    0.1213    0.2762 C.ar    1  UNL11       0.1573
      5 O           0.0478    0.4433    0.3378 O.3     1  UNL11      -0.4849
      6 C          -0.3153    1.8072    0.2269 C.3     1  UNL11       0.1148
      7 C           0.8777    2.6484    0.0624 C.ar    1  UNL11      -0.0090
      8 C           1.4049    2.9712   -1.1723 C.ar    1  UNL11      -0.0553
      9 C           2.5368    3.7714   -1.2748 C.ar    1  UNL11      -0.0600
     10 C           3.1714    4.2695   -0.1566 C.ar    1  UNL11      -0.0434
     11 C           2.6441    3.9468    1.0851 C.ar    1  UNL11       0.0413
     12 CL          3.4505    4.5796    2.5011 Cl      1  UNL11      -0.0835
     13 C           1.5155    3.1486    1.1795 C.ar    1  UNL11      -0.0370
     14 C           2.3397    1.0351    0.7377 C.ar    1  UNL11       0.1980
     15 N           2.2350    2.2735    1.2809 N.ar    1  UNL11      -0.2119
     16 N           3.4504    2.7007    1.5433 N.ar    1  UNL11       0.0922
     17 N           4.3399    1.7926    1.1937 N.ar    1  UNL11      -0.0607
     18 C           3.6824    0.7281    0.6820 C.ar    1  UNL11       0.3598
     19 N           4.0975   -0.4552    0.1818 N.ar    1  UNL11      -0.1681
     20 H           3.6323   -3.4613   -0.2295 H       1  UNL11       0.1437
     21 H           4.1382   -2.6393   -1.7301 H       1  UNL11       0.1437
     22 H           1.1717   -1.7884   -0.5850 H       1  UNL11       0.0689
     23 H          -0.9456    2.1118    1.0902 H       1  UNL11       0.0748
     24 H          -0.9324    1.9124   -0.6842 H       1  UNL11       0.0748
     25 H           0.9266    2.5941   -2.0566 H       1  UNL11       0.0621
     26 H           2.9671    4.0367   -2.2433 H       1  UNL11       0.0618
     27 H           4.0604    4.8975   -0.2511 H       1  UNL11       0.0632
     28 H           1.1344    2.9200    2.1861 H       1  UNL11       0.0636
     29 H           5.3979    1.8305    1.2739 H       1  UNL11       0.4931
     30 H           1.3984    2.7647    1.4487 H       1  UNL11       0.1948
@<TRIPOS>BOND
     1     1     2    1
     2     1    20    1
     3     1    21    1
     4     2     3   ar
     5     3     4   ar
     6     3    22    1
     7     4     5    1
     8     4    14   ar
     9     5     6    1
    10     6     7    1
    11     6    23    1
    12     6    24    1
    13     7     8   ar
    14     8     9   ar
    15     8    25    1
    16     9    10   ar
    17     9    26    1
    18    10    11   ar
    19    10    27    1
    20    11    12    1
    21    11    13   ar
    22    13     7   ar
    23    13    28    1
    24    14    15   ar
    25    15    16   ar
    26    16    17   ar
    27    17    18   ar
    28    17    29    1
    29    18    19   ar
    30    18    14   ar
    31    19     2   ar
    32    15    30    1
@<TRIPOS>MOLECULE
*****
 30 32 0 0 0
SMALL
GASTEIGER

@<TRIPOS>ATOM
      1 N           3.7077   -2.6026   -0.7943 N.pl3   1  UNL11      -0.3429
      2 C           3.2206   -1.3818   -0.2819 C.ar    1  UNL11       0.1264
      3 C           1.8816   -1.0605   -0.2195 C.ar    1  UNL11       0.0222
      4 C           1.4044    0.1213    0.2762 C.ar    1  UNL11       0.1573
      5 O           0.0478    0.4433    0.3378 O.3     1  UNL11      -0.4849
      6 C          -0.3097    1.7100    0.8596 C.3     1  UNL11       0.1148
      7 C          -0.5211    1.6305    2.3111 C.ar    1  UNL11      -0.0090
      8 C           0.2140    2.3671    3.2187 C.ar    1  UNL11      -0.0553
      9 C          -0.0247    2.2562    4.5835 C.ar    1  UNL11      -0.0600
     10 C          -0.9967    1.4133    5.0794 C.ar    1  UNL11      -0.0434
     11 C          -1.7367    0.6721    4.1700 C.ar    1  UNL11       0.0413
     12 CL         -2.9684   -0.3958    4.8013 Cl      1  UNL11      -0.0835
     13 C          -1.4932    0.7879    2.8109 C.ar    1  UNL11      -0.0370
     14 C           2.3397    1.0351    0.7377 C.ar    1  UNL11       0.1980
     15 N           2.2350    2.2735    1.2809 N.ar    1  UNL11      -0.2119
     16 N           3.4504    2.7007    1.5433 N.ar    1  UNL11       0.0922
     17 N           4.3399    1.7926    1.1937 N.ar    1  UNL11      -0.0607
     18 C           3.6824    0.7281    0.6820 C.ar    1  UNL11       0.3598
     19 N           4.0975   -0.4552    0.1818 N.ar    1  UNL11      -0.1681
     20 H           3.6323   -3.4613   -0.2295 H       1  UNL11       0.1437
     21 H           4.1382   -2.6393   -1.7301 H       1  UNL11       0.1437
     22 H           1.1717   -1.7884   -0.5850 H       1  UNL11       0.0689
     23 H          -1.1875    2.1197    0.3148 H       1  UNL11       0.0748
     24 H           0.5391    2.3944    0.6776 H       1  UNL11       0.0748
     25 H           0.9762    3.0300    2.8545 H       1  UNL11       0.0621
     26 H           0.5472    2.8313    5.3154 H       1  UNL11       0.0618
     27 H          -1.1742    1.3355    6.1546 H       1  UNL11       0.0632
     28 H          -2.1058    0.1797    2.1286 H       1  UNL11       0.0636
     29 H           5.3979    1.8305    1.2739 H       1  UNL11       0.4931
     30 H           1.3984    2.7647    1.4487 H       1  UNL11       0.1948
@<TRIPOS>BOND
     1     1     2    1
     2     1    20    1
     3     1    21    1
     4     2     3   ar
     5     3     4   ar
     6     3    22    1
     7     4     5    1
     8     4    14   ar
     9     5     6    1
    10     6     7    1
    11     6    23    1
    12     6    24    1
    13     7     8   ar
    14     8     9   ar
    15     8    25    1
    16     9    10   ar
    17     9    26    1
    18    10    11   ar
    19    10    27    1
    20    11    12    1
    21    11    13   ar
    22    13     7   ar
    23    13    28    1
    24    14    15   ar
    25    15    16   ar
    26    16    17   ar
    27    17    18   ar
    28    17    29    1
    29    18    19   ar
    30    18    14   ar
    31    19     2   ar
    32    15    30    1
@<TRIPOS>MOLECULE
*****
 30 32 0 0 0
SMALL
GASTEIGER

@<TRIPOS>ATOM
      1 N           3.7077   -2.6026   -0.7943 N.pl3   1  UNL11      -0.3429
      2 C           3.2206   -1.3818   -0.2819 C.ar    1  UNL11       0.1264
      3 C           1.8816   -1.0605   -0.2195 C.ar    1  UNL11       0.0222
      4 C           1.4044    0.1213    0.2762 C.ar    1  UNL11       0.1573
      5 O           0.0478    0.4433    0.3378 O.3     1  UNL11      -0.4849
      6 C          -0.8785   -0.6163    0.4919 C.3     1  UNL11       0.1148
      7 C          -0.2714   -1.7306    1.2319 C.ar    1  UNL11      -0.0090
      8 C          -0.9460   -2.9024    1.5120 C.ar    1  UNL11      -0.0553
      9 C          -0.3266   -3.9283    2.2162 C.ar    1  UNL11      -0.0600
     10 C           0.9746   -3.8161    2.6585 C.ar    1  UNL11      -0.0434
     11 C           1.6547   -2.6400    2.3787 C.ar    1  UNL11       0.0413
     12 CL          3.3041   -2.5003    2.9406 Cl      1  UNL11      -0.0835
     13 C           1.0308   -1.6217    1.6762 C.ar    1  UNL11      -0.0370
     14 C           2.3397    1.0351    0.7377 C.ar    1  UNL11       0.1980
     15 N           2.2350    2.2735    1.2809 N.ar    1  UNL11      -0.2119
     16 N           3.4504    2.7007    1.5433 N.ar    1  UNL11       0.0922
     17 N           4.3399    1.7926    1.1937 N.ar    1  UNL11      -0.0607
     18 C           3.6824    0.7281    0.6820 C.ar    1  UNL11       0.3598
     19 N           4.0975   -0.4552    0.1818 N.ar    1  UNL11      -0.1681
     20 H           3.6323   -3.4613   -0.2295 H       1  UNL11       0.1437
     21 H           4.1382   -2.6393   -1.7301 H       1  UNL11       0.1437
     22 H           1.1717   -1.7884   -0.5850 H       1  UNL11       0.0689
     23 H          -1.2855   -0.9219   -0.4962 H       1  UNL11       0.0748
     24 H          -1.7241   -0.2320    1.0914 H       1  UNL11       0.0748
     25 H          -1.9603   -3.0113    1.1769 H       1  UNL11       0.0621
     26 H          -0.8452   -4.8619    2.4464 H       1  UNL11       0.0618
     27 H           1.4497   -4.6301    3.2111 H       1  UNL11       0.0632
     28 H           1.6109   -0.7078    1.4783 H       1  UNL11       0.0636
     29 H           5.3979    1.8305    1.2739 H       1  UNL11       0.4931
     30 H           1.3984    2.7647    1.4487 H       1  UNL11       0.1948
@<TRIPOS>BOND
     1     1     2    1
     2     1    20    1
     3     1    21    1
     4     2     3   ar
     5     3     4   ar
     6     3    22    1
     7     4     5    1
     8     4    14   ar
     9     5     6    1
    10     6     7    1
    11     6    23    1
    12     6    24    1
    13     7     8   ar
    14     8     9   ar
    15     8    25    1
    16     9    10   ar
    17     9    26    1
    18    10    11   ar
    19    10    27    1
    20    11    12    1
    21    11    13   ar
    22    13     7   ar
    23    13    28    1
    24    14    15   ar
    25    15    16   ar
    26    16    17   ar
    27    17    18   ar
    28    17    29    1
    29    18    19   ar
    30    18    14   ar
    31    19     2   ar
    32    15    30    1
@<TRIPOS>MOLECULE
*****
 30 32 0 0 0
SMALL
GASTEIGER

@<TRIPOS>ATOM
      1 N           3.7077   -2.6026   -0.7943 N.pl3   1  UNL11      -0.3429
      2 C           3.2206   -1.3818   -0.2819 C.ar    1  UNL11       0.1264
      3 C           1.8816   -1.0605   -0.2195 C.ar    1  UNL11       0.0222
      4 C           1.4044    0.1213    0.2762 C.ar    1  UNL11       0.1573
      5 O           0.0478    0.4433    0.3378 O.3     1  UNL11      -0.4849
      6 C          -0.8823   -0.5114   -0.1396 C.3     1  UNL11       0.1148
      7 C          -0.6311   -0.8157   -1.5546 C.ar    1  UNL11      -0.0090
      8 C          -0.9074   -2.0452   -2.1191 C.ar    1  UNL11      -0.0553
      9 C          -0.6512   -2.2835   -3.4643 C.ar    1  UNL11      -0.0600
     10 C          -0.1156   -1.3092   -4.2799 C.ar    1  UNL11      -0.0434
     11 C           0.1630   -0.0732   -3.7156 C.ar    1  UNL11       0.0413
     12 CL          0.8419    1.1601   -4.7518 Cl      1  UNL11      -0.0835
     13 C          -0.0951    0.1571   -2.3739 C.ar    1  UNL11      -0.0370
     14 C           2.3397    1.0351    0.7377 C.ar    1  UNL11       0.1980
     15 N           2.2350    2.2735    1.2809 N.ar    1  UNL11      -0.2119
     16 N           3.4504    2.7007    1.5433 N.ar    1  UNL11       0.0922
     17 N           4.3399    1.7926    1.1937 N.ar    1  UNL11      -0.0607
     18 C           3.6824    0.7281    0.6820 C.ar    1  UNL11       0.3598
     19 N           4.0975   -0.4552    0.1818 N.ar    1  UNL11      -0.1681
     20 H           3.6323   -3.4613   -0.2295 H       1  UNL11       0.1437
     21 H           4.1382   -2.6393   -1.7301 H       1  UNL11       0.1437
     22 H           1.1717   -1.7884   -0.5850 H       1  UNL11       0.0689
     23 H          -1.9221   -0.1692    0.0529 H       1  UNL11       0.0748
     24 H          -0.7294   -1.4406    0.4393 H       1  UNL11       0.0748
     25 H          -1.3249   -2.8186   -1.5022 H       1  UNL11       0.0621
     26 H          -0.8636   -3.2500   -3.9272 H       1  UNL11       0.0618
     27 H           0.0809   -1.5096   -5.3358 H       1  UNL11       0.0632
     28 H           0.1427    1.1533   -1.9717 H       1  UNL11       0.0636
     29 H           5.3979    1.8305    1.2739 H       1  UNL11       0.4931
     30 H           1.3984    2.7647    1.4487 H       1  UNL11       0.1948
@<TRIPOS>BOND
     1     1     2    1
     2     1    20    1
     3     1    21    1
     4     2     3   ar
     5     3     4   ar
     6     3    22    1
     7     4     5    1
     8     4    14   ar
     9     5     6    1
    10     6     7    1
    11     6    23    1
    12     6    24    1
    13     7     8   ar
    14     8     9   ar
    15     8    25    1
    16     9    10   ar
    17     9    26    1
    18    10    11   ar
    19    10    27    1
    20    11    12    1
    21    11    13   ar
    22    13     7   ar
    23    13    28    1
    24    14    15   ar
    25    15    16   ar
    26    16    17   ar
    27    17    18   ar
    28    17    29    1
    29    18    19   ar
    30    18    14   ar
    31    19     2   ar
    32    15    30    1
@<TRIPOS>MOLECULE
*****
 30 32 0 0 0
SMALL
GASTEIGER

@<TRIPOS>ATOM
      1 N           3.7077   -2.6026   -0.7943 N.pl3   1  UNL11      -0.3429
      2 C           3.2206   -1.3818   -0.2819 C.ar    1  UNL11       0.1264
      3 C           1.8816   -1.0605   -0.2195 C.ar    1  UNL11       0.0222
      4 C           1.4044    0.1213    0.2762 C.ar    1  UNL11       0.1573
      5 O           0.0478    0.4433    0.3378 O.3     1  UNL11      -0.4849
      6 C          -0.3153    1.8072    0.2269 C.3     1  UNL11       0.1148
      7 C          -0.5486    2.1678   -1.1779 C.ar    1  UNL11      -0.0090
      8 C          -1.7864    2.0720   -1.7825 C.ar    1  UNL11      -0.0553
      9 C          -1.9555    2.4257   -3.1160 C.ar    1  UNL11      -0.0600
     10 C          -0.9023    2.8821   -3.8801 C.ar    1  UNL11      -0.0434
     11 C           0.3422    2.9794   -3.2755 C.ar    1  UNL11       0.0413
     12 CL          1.6757    3.5582   -4.2464 Cl      1  UNL11      -0.0835
     13 C           0.5032    2.6250   -1.9457 C.ar    1  UNL11      -0.0370
     14 C           2.3397    1.0351    0.7377 C.ar    1  UNL11       0.1980
     15 N           2.2350    2.2735    1.2809 N.ar    1  UNL11      -0.2119
     16 N           3.4504    2.7007    1.5433 N.ar    1  UNL11       0.0922
     17 N           4.3399    1.7926    1.1937 N.ar    1  UNL11      -0.0607
     18 C           3.6824    0.7281    0.6820 C.ar    1  UNL11       0.3598
     19 N           4.0975   -0.4552    0.1818 N.ar    1  UNL11      -0.1681
     20 H           3.6323   -3.4613   -0.2295 H       1  UNL11       0.1437
     21 H           4.1382   -2.6393   -1.7301 H       1  UNL11       0.1437
     22 H           1.1717   -1.7884   -0.5850 H       1  UNL11       0.0689
     23 H           0.4441    2.4517    0.7201 H       1  UNL11       0.0748
     24 H          -1.2664    1.9421    0.7739 H       1  UNL11       0.0748
     25 H          -2.6207    1.7189   -1.2061 H       1  UNL11       0.0621
     26 H          -2.9274    2.3562   -3.6100 H       1  UNL11       0.0618
     27 H          -1.0489    3.1570   -4.9273 H       1  UNL11       0.0632
     28 H           1.5094    2.7192   -1.5102 H       1  UNL11       0.0636
     29 H           5.3979    1.8305    1.2739 H       1  UNL11       0.4931
     30 H           1.3984    2.7647    1.4487 H       1  UNL11       0.1948
@<TRIPOS>BOND
     1     1     2    1
     2     1    20    1
     3     1    21    1
     4     2     3   ar
     5     3     4   ar
     6     3    22    1
     7     4     5    1
     8     4    14   ar
     9     5     6    1
    10     6     7    1
    11     6    23    1
    12     6    24    1
    13     7     8   ar
    14     8     9   ar
    15     8    25    1
    16     9    10   ar
    17     9    26    1
    18    10    11   ar
    19    10    27    1
    20    11    12    1
    21    11    13   ar
    22    13     7   ar
    23    13    28    1
    24    14    15   ar
    25    15    16   ar
    26    16    17   ar
    27    17    18   ar
    28    17    29    1
    29    18    19   ar
    30    18    14   ar
    31    19     2   ar
    32    15    30    1
@<TRIPOS>MOLECULE
*****
 30 32 0 0 0
SMALL
GASTEIGER

@<TRIPOS>ATOM
      1 N           3.7077   -2.6026   -0.7943 N.pl3   1  UNL11      -0.3429
      2 C           3.2206   -1.3818   -0.2819 C.ar    1  UNL11       0.1264
      3 C           1.8816   -1.0605   -0.2195 C.ar    1  UNL11       0.0222
      4 C           1.4044    0.1213    0.2762 C.ar    1  UNL11       0.1573
      5 O           0.0478    0.4433    0.3378 O.3     1  UNL11      -0.4849
      6 C          -0.3153    1.8072    0.2269 C.3     1  UNL11       0.1148
      7 C           0.1200    2.3550   -1.0648 C.ar    1  UNL11      -0.0090
      8 C          -0.7574    2.8847   -1.9902 C.ar    1  UNL11      -0.0553
      9 C          -0.2951    3.3911   -3.1992 C.ar    1  UNL11      -0.0600
     10 C           1.0463    3.3839   -3.5184 C.ar    1  UNL11      -0.0434
     11 C           1.9299    2.8523   -2.5908 C.ar    1  UNL11       0.0413
     12 CL          3.6300    2.8444   -2.9979 Cl      1  UNL11      -0.0835
     13 C           1.4619    2.3494   -1.3875 C.ar    1  UNL11      -0.0370
     14 C           2.3397    1.0351    0.7377 C.ar    1  UNL11       0.1980
     15 N           2.2350    2.2735    1.2809 N.ar    1  UNL11      -0.2119
     16 N           3.4504    2.7007    1.5433 N.ar    1  UNL11       0.0922
     17 N           4.3399    1.7926    1.1937 N.ar    1  UNL11      -0.0607
     18 C           3.6824    0.7281    0.6820 C.ar    1  UNL11       0.3598
     19 N           4.0975   -0.4552    0.1818 N.ar    1  UNL11      -0.1681
     20 H           3.6323   -3.4613   -0.2295 H       1  UNL11       0.1437
     21 H           4.1382   -2.6393   -1.7301 H       1  UNL11       0.1437
     22 H           1.1717   -1.7884   -0.5850 H       1  UNL11       0.0689
     23 H           0.0717    2.3830    1.0952 H       1  UNL11       0.0748
     24 H          -1.4189    1.8599    0.2628 H       1  UNL11       0.0748
     25 H          -1.8065    2.9005   -1.7623 H       1  UNL11       0.0621
     26 H          -0.9750    3.8139   -3.9426 H       1  UNL11       0.0618
     27 H           1.3964    3.7852   -4.4724 H       1  UNL11       0.0632
     28 H           2.2011    1.9381   -0.6838 H       1  UNL11       0.0636
     29 H           5.3979    1.8305    1.2739 H       1  UNL11       0.4931
     30 H           1.3984    2.7647    1.4487 H       1  UNL11       0.1948
@<TRIPOS>BOND
     1     1     2    1
     2     1    20    1
     3     1    21    1
     4     2     3   ar
     5     3     4   ar
     6     3    22    1
     7     4     5    1
     8     4    14   ar
     9     5     6    1
    10     6     7    1
    11     6    23    1
    12     6    24    1
    13     7     8   ar
    14     8     9   ar
    15     8    25    1
    16     9    10   ar
    17     9    26    1
    18    10    11   ar
    19    10    27    1
    20    11    12    1
    21    11    13   ar
    22    13     7   ar
    23    13    28    1
    24    14    15   ar
    25    15    16   ar
    26    16    17   ar
    27    17    18   ar
    28    17    29    1
    29    18    19   ar
    30    18    14   ar
    31    19     2   ar
    32    15    30    1
@<TRIPOS>MOLECULE
*****
 30 32 0 0 0
SMALL
GASTEIGER

@<TRIPOS>ATOM
      1 N           3.7077   -2.6026   -0.7943 N.pl3   1  UNL11      -0.3429
      2 C           3.2206   -1.3818   -0.2819 C.ar    1  UNL11       0.1264
      3 C           1.8816   -1.0605   -0.2195 C.ar    1  UNL11       0.0222
      4 C           1.4044    0.1213    0.2762 C.ar    1  UNL11       0.1573
      5 O           0.0478    0.4433    0.3378 O.3     1  UNL11      -0.4849
      6 C          -0.3840    1.2968    1.3816 C.3     1  UNL11       0.1148
      7 C          -0.7748    0.5140    2.5616 C.ar    1  UNL11      -0.0090
      8 C          -1.2509    1.0913    3.7222 C.ar    1  UNL11      -0.0553
      9 C          -1.6075    0.3061    4.8122 C.ar    1  UNL11      -0.0600
     10 C          -1.5004   -1.0681    4.7769 C.ar    1  UNL11      -0.0434
     11 C          -1.0224   -1.6508    3.6125 C.ar    1  UNL11       0.0413
     12 CL         -0.8876   -3.3932    3.5703 Cl      1  UNL11      -0.0835
     13 C          -0.6688   -0.8618    2.5298 C.ar    1  UNL11      -0.0370
     14 C           2.3397    1.0351    0.7377 C.ar    1  UNL11       0.1980
     15 N           2.2350    2.2735    1.2809 N.ar    1  UNL11      -0.2119
     16 N           3.4504    2.7007    1.5433 N.ar    1  UNL11       0.0922
     17 N           4.3399    1.7926    1.1937 N.ar    1  UNL11      -0.0607
     18 C           3.6824    0.7281    0.6820 C.ar    1  UNL11       0.3598
     19 N           4.0975   -0.4552    0.1818 N.ar    1  UNL11      -0.1681
     20 H           3.6323   -3.4613   -0.2295 H       1  UNL11       0.1437
     21 H           4.1382   -2.6393   -1.7301 H       1  UNL11       0.1437
     22 H           1.1717   -1.7884   -0.5850 H       1  UNL11       0.0689
     23 H          -1.1906    1.9715    1.0217 H       1  UNL11       0.0748
     24 H           0.4744    1.9326    1.6657 H       1  UNL11       0.0748
     25 H          -1.3425    2.1600    3.7716 H       1  UNL11       0.0621
     26 H          -1.9860    0.7460    5.7379 H       1  UNL11       0.0618
     27 H          -1.7843   -1.6737    5.6408 H       1  UNL11       0.0632
     28 H          -0.2948   -1.3697    1.6282 H       1  UNL11       0.0636
     29 H           5.3979    1.8305    1.2739 H       1  UNL11       0.4931
     30 H           1.3984    2.7647    1.4487 H       1  UNL11       0.1948
@<TRIPOS>BOND
     1     1     2    1
     2     1    20    1
     3     1    21    1
     4     2     3   ar
     5     3     4   ar
     6     3    22    1
     7     4     5    1
     8     4    14   ar
     9     5     6    1
    10     6     7    1
    11     6    23    1
    12     6    24    1
    13     7     8   ar
    14     8     9   ar
    15     8    25    1
    16     9    10   ar
    17     9    26    1
    18    10    11   ar
    19    10    27    1
    20    11    12    1
    21    11    13   ar
    22    13     7   ar
    23    13    28    1
    24    14    15   ar
    25    15    16   ar
    26    16    17   ar
    27    17    18   ar
    28    17    29    1
    29    18    19   ar
    30    18    14   ar
    31    19     2   ar
    32    15    30    1
@<TRIPOS>MOLECULE
*****
 30 32 0 0 0
SMALL
GASTEIGER

@<TRIPOS>ATOM
      1 N           3.7077   -2.6026   -0.7943 N.pl3   1  UNL11      -0.3429
      2 C           3.2206   -1.3818   -0.2819 C.ar    1  UNL11       0.1264
      3 C           1.8816   -1.0605   -0.2195 C.ar    1  UNL11       0.0222
      4 C           1.4044    0.1213    0.2762 C.ar    1  UNL11       0.1573
      5 O           0.0478    0.4433    0.3378 O.3     1  UNL11      -0.4849
      6 C          -0.3097    1.7100    0.8596 C.3     1  UNL11       0.1148
      7 C          -0.5211    1.6305    2.3111 C.ar    1  UNL11      -0.0090
      8 C          -0.8942    2.7176    3.0765 C.ar    1  UNL11      -0.0553
      9 C          -1.0818    2.5906    4.4478 C.ar    1  UNL11      -0.0600
     10 C          -0.9041    1.3841    5.0913 C.ar    1  UNL11      -0.0434
     11 C          -0.5293    0.2904    4.3250 C.ar    1  UNL11       0.0413
     12 CL         -0.3046   -1.2380    5.1432 Cl      1  UNL11      -0.0835
     13 C          -0.3441    0.4245    2.9584 C.ar    1  UNL11      -0.0370
     14 C           2.3397    1.0351    0.7377 C.ar    1  UNL11       0.1980
     15 N           2.2350    2.2735    1.2809 N.ar    1  UNL11      -0.2119
     16 N           3.4504    2.7007    1.5433 N.ar    1  UNL11       0.0922
     17 N           4.3399    1.7926    1.1937 N.ar    1  UNL11      -0.0607
     18 C           3.6824    0.7281    0.6820 C.ar    1  UNL11       0.3598
     19 N           4.0975   -0.4552    0.1818 N.ar    1  UNL11      -0.1681
     20 H           3.6323   -3.4613   -0.2295 H       1  UNL11       0.1437
     21 H           4.1382   -2.6393   -1.7301 H       1  UNL11       0.1437
     22 H           1.1717   -1.7884   -0.5850 H       1  UNL11       0.0689
     23 H          -1.1875    2.1197    0.3148 H       1  UNL11       0.0748
     24 H           0.5391    2.3944    0.6776 H       1  UNL11       0.0748
     25 H          -1.0382    3.6670    2.5960 H       1  UNL11       0.0621
     26 H          -1.3769    3.4399    5.0684 H       1  UNL11       0.0618
     27 H          -1.0549    1.2980    6.1699 H       1  UNL11       0.0632
     28 H          -0.0469   -0.4714    2.3929 H       1  UNL11       0.0636
     29 H           5.3979    1.8305    1.2739 H       1  UNL11       0.4931
     30 H           1.3984    2.7647    1.4487 H       1  UNL11       0.1948
@<TRIPOS>BOND
     1     1     2    1
     2     1    20    1
     3     1    21    1
     4     2     3   ar
     5     3     4   ar
     6     3    22    1
     7     4     5    1
     8     4    14   ar
     9     5     6    1
    10     6     7    1
    11     6    23    1
    12     6    24    1
    13     7     8   ar
    14     8     9   ar
    15     8    25    1
    16     9    10   ar
    17     9    26    1
    18    10    11   ar
    19    10    27    1
    20    11    12    1
    21    11    13   ar
    22    13     7   ar
    23    13    28    1
    24    14    15   ar
    25    15    16   ar
    26    16    17   ar
    27    17    18   ar
    28    17    29    1
    29    18    19   ar
    30    18    14   ar
    31    19     2   ar
    32    15    30    1
