@<TRIPOS>MOLECULE
*****
 58 62 0 0 0
SMALL
GASTEIGER

@<TRIPOS>ATOM
      1 O          -0.0342   -1.0722   -1.9409 O.2     1  UNL11      -0.2700
      2 C           0.4228    0.0376   -1.4084 C.2     1  UNL11       0.2466
      3 C          -0.5906    0.9631   -0.9780 C.ar    1  UNL11       0.0372
      4 C          -1.8484    0.6763   -0.5357 C.ar    1  UNL11      -0.0496
      5 C          -2.7633    1.6404   -0.1351 C.ar    1  UNL11      -0.0608
      6 C          -2.3855    2.9593   -0.1853 C.ar    1  UNL11      -0.0582
      7 C          -1.1437    3.3074   -0.6175 C.ar    1  UNL11      -0.0407
      8 C          -0.7186    4.7434   -0.6770 C.3     1  UNL11       0.0211
      9 C          -0.3768    5.0629   -2.0855 C.2     1  UNL11       0.1192
     10 N          -0.5288    6.2837   -2.6178 N.2     1  UNL11      -0.0073
     11 N          -0.2188    6.5413   -3.8691 N.am    1  UNL11      -0.0356
     12 C           0.2610    5.5659   -4.6368 C.2     1  UNL11       0.4383
     13 O           0.5531    5.8180   -5.8228 O.2     1  UNL11      -0.2116
     14 C           0.4433    4.2972   -4.1645 C.ar    1  UNL11       0.1004
     15 C           0.9426    3.2831   -4.9646 C.ar    1  UNL11      -0.0441
     16 C           1.1042    2.0249   -4.4327 C.ar    1  UNL11      -0.0608
     17 C           0.7798    1.7459   -3.1149 C.ar    1  UNL11      -0.0611
     18 C           0.2874    2.7628   -2.3400 C.ar    1  UNL11      -0.0518
     19 C           0.1210    4.0188   -2.8548 C.ar    1  UNL11       0.0192
     20 C          -0.2670    2.3319   -1.0049 C.ar    1  UNL11      -0.0461
     21 N           1.8175    0.0996   -1.3656 N.am    1  UNL11      -0.2974
     22 C           2.5858   -1.0770   -1.9182 C.3     1  UNL11       0.0173
     23 C           3.4808   -1.4751   -0.7607 C.3     1  UNL11      -0.0107
     24 C           4.5346   -0.4054   -0.6438 C.3     1  UNL11       0.0619
     25 O           5.1323   -0.3805    0.6107 O.3     1  UNL11      -0.3732
     26 C           4.2301   -0.1564    1.6406 C.3     1  UNL11       0.0591
     27 C           4.7979   -0.0988    3.0255 C.3     1  UNL11      -0.0265
     28 C           3.7124   -1.0848    3.4774 C.3     1  UNL11      -0.0484
     29 C           3.6059   -1.5063    2.0265 C.3     1  UNL11      -0.0265
     30 C           4.0802    0.9572   -0.9918 C.3     1  UNL11      -0.0107
     31 C           2.5783    1.1725   -0.8509 C.3     1  UNL11       0.0173
     32 H          -2.1872   -0.3211   -0.4803 H       1  UNL11       0.0625
     33 H          -3.7379    1.3409    0.2025 H       1  UNL11       0.0618
     34 H          -3.0882    3.7148    0.1233 H       1  UNL11       0.0620
     35 H          -1.5389    5.4048   -0.3176 H       1  UNL11       0.0379
     36 H           0.1777    4.9095   -0.0385 H       1  UNL11       0.0379
     37 H          -0.3613    7.5112   -4.2199 H       1  UNL11       0.4829
     38 H           1.1843    3.5322   -5.9821 H       1  UNL11       0.0627
     39 H           1.4905    1.2554   -5.0634 H       1  UNL11       0.0618
     40 H           0.9053    0.7635   -2.6974 H       1  UNL11       0.0618
     41 H           0.0147    2.6050   -1.2969 H       1  UNL11       0.0624
     42 H           0.7178    2.6449   -1.3452 H       1  UNL11       0.0628
     43 H           3.1701   -0.6336   -2.7462 H       1  UNL11       0.0465
     44 H           1.8846   -1.8530   -2.2063 H       1  UNL11       0.0465
     45 H           2.8315   -1.5234    0.1377 H       1  UNL11       0.0305
     46 H           3.9711   -2.4350   -0.9855 H       1  UNL11       0.0305
     47 H           5.3567   -0.6989   -1.3626 H       1  UNL11       0.0597
     48 H           3.4117    0.5454    1.4283 H       1  UNL11       0.0596
     49 H           5.7780   -0.5647    3.1347 H       1  UNL11       0.0290
     50 H           4.6389    0.8520    3.5861 H       1  UNL11       0.0290
     51 H           2.7838   -0.5950    3.8061 H       1  UNL11       0.0267
     52 H           4.0919   -1.8560    4.1643 H       1  UNL11       0.0267
     53 H           4.2927   -2.3717    1.8536 H       1  UNL11       0.0290
     54 H           2.5931   -1.6514    1.6394 H       1  UNL11       0.0290
     55 H           4.5834    1.7028   -0.3440 H       1  UNL11       0.0305
     56 H           4.3614    1.2019   -2.0366 H       1  UNL11       0.0305
     57 H           2.3489    2.0963   -1.4032 H       1  UNL11       0.0465
     58 H           2.3627    1.3157    0.2187 H       1  UNL11       0.0465
@<TRIPOS>BOND
     1     1     2    2
     2     2     3    1
     3     2    21   am
     4     3     4   ar
     5     4     5   ar
     6     4    32    1
     7     5     6   ar
     8     5    33    1
     9     6     7   ar
    10     6    34    1
    11     7     8    1
    12     7    20   ar
    13     8     9    1
    14     8    35    1
    15     8    36    1
    16     9    10    2
    17    10    11    1
    18    11    12   am
    19    11    37    1
    20    12    13    2
    21    12    14    1
    22    14    15   ar
    23    15    16   ar
    24    15    38    1
    25    16    17   ar
    26    16    39    1
    27    17    18   ar
    28    17    40    1
    29    18    19   ar
    30    18    41    1
    31    19     9    1
    32    19    14   ar
    33    20     3   ar
    34    20    42    1
    35    21    22    1
    36    22    23    1
    37    22    43    1
    38    22    44    1
    39    23    24    1
    40    23    45    1
    41    23    46    1
    42    24    25    1
    43    24    30    1
    44    24    47    1
    45    25    26    1
    46    26    27    1
    47    26    48    1
    48    27    28    1
    49    27    49    1
    50    27    50    1
    51    28    29    1
    52    28    51    1
    53    28    52    1
    54    29    26    1
    55    29    53    1
    56    29    54    1
    57    30    31    1
    58    30    55    1
    59    30    56    1
    60    31    21    1
    61    31    57    1
    62    31    58    1
@<TRIPOS>MOLECULE
*****
 58 62 0 0 0
SMALL
GASTEIGER

@<TRIPOS>ATOM
      1 O          -0.0342   -1.0722   -1.9409 O.2     1  UNL11      -0.2700
      2 C           0.4228    0.0376   -1.4084 C.2     1  UNL11       0.2466
      3 C          -0.5906    0.9631   -0.9780 C.ar    1  UNL11       0.0372
      4 C          -0.5223    1.8554    0.0511 C.ar    1  UNL11      -0.0496
      5 C          -1.5551    2.7173    0.3940 C.ar    1  UNL11      -0.0608
      6 C          -2.7135    2.6729   -0.3416 C.ar    1  UNL11      -0.0582
      7 C          -2.8408    1.8038   -1.3800 C.ar    1  UNL11      -0.0407
      8 C          -4.0998    1.7452   -2.1911 C.3     1  UNL11       0.0211
      9 C          -5.2309    2.1321   -1.3116 C.2     1  UNL11       0.1192
     10 N          -5.2386    1.9146    0.0110 N.2     1  UNL11      -0.0073
     11 N          -6.2536    2.2667    0.7687 N.am    1  UNL11      -0.0356
     12 C          -7.3088    2.8574    0.2132 C.2     1  UNL11       0.4383
     13 O          -8.2678    3.1888    0.9385 O.2     1  UNL11      -0.2116
     14 C          -7.3728    3.1117   -1.1274 C.ar    1  UNL11       0.1004
     15 C          -8.4715    3.7264   -1.7042 C.ar    1  UNL11      -0.0441
     16 C          -8.4784    3.9563   -3.0603 C.ar    1  UNL11      -0.0608
     17 C          -7.4124    3.5881   -3.8652 C.ar    1  UNL11      -0.0611
     18 C          -6.3350    2.9814   -3.2753 C.ar    1  UNL11      -0.0518
     19 C          -6.3138    2.7460   -1.9283 C.ar    1  UNL11       0.0192
     20 C          -1.8035    0.9684   -1.6907 C.ar    1  UNL11      -0.0461
     21 N           1.8175    0.0996   -1.3656 N.am    1  UNL11      -0.2974
     22 C           2.5858   -1.0770   -1.9182 C.3     1  UNL11       0.0173
     23 C           3.4808   -1.4751   -0.7607 C.3     1  UNL11      -0.0107
     24 C           4.5346   -0.4054   -0.6438 C.3     1  UNL11       0.0619
     25 O           5.1323   -0.3805    0.6107 O.3     1  UNL11      -0.3732
     26 C           5.7762   -1.5668    0.9319 C.3     1  UNL11       0.0591
     27 C           6.4333   -1.6275    2.2766 C.3     1  UNL11      -0.0265
     28 C           7.7044   -2.1534    1.5966 C.3     1  UNL11      -0.0484
     29 C           7.1854   -1.5220    0.3213 C.3     1  UNL11      -0.0265
     30 C           4.0802    0.9572   -0.9918 C.3     1  UNL11      -0.0107
     31 C           2.5783    1.1725   -0.8509 C.3     1  UNL11       0.0173
     32 H           0.3449    1.9271    0.6473 H       1  UNL11       0.0625
     33 H          -1.4308    3.3948    1.2180 H       1  UNL11       0.0618
     34 H          -3.5205    3.3375   -0.0834 H       1  UNL11       0.0620
     35 H          -4.0316    2.4362   -3.0614 H       1  UNL11       0.0379
     36 H          -4.2699    0.7125   -2.5695 H       1  UNL11       0.0379
     37 H          -6.1956    2.0686    1.7892 H       1  UNL11       0.4829
     38 H          -9.2818    3.9993   -1.0524 H       1  UNL11       0.0627
     39 H          -9.3333    4.4313   -3.4880 H       1  UNL11       0.0618
     40 H          -7.4159    3.7668   -4.9249 H       1  UNL11       0.0618
     41 H          -5.4672    2.6693   -3.8556 H       1  UNL11       0.0624
     42 H          -1.9385    0.2859   -2.5271 H       1  UNL11       0.0628
     43 H           3.1701   -0.6336   -2.7462 H       1  UNL11       0.0465
     44 H           1.8846   -1.8530   -2.2063 H       1  UNL11       0.0465
     45 H           2.8315   -1.5234    0.1377 H       1  UNL11       0.0305
     46 H           3.9711   -2.4350   -0.9855 H       1  UNL11       0.0305
     47 H           5.3567   -0.6989   -1.3626 H       1  UNL11       0.0597
     48 H           5.2909   -2.4926    0.5931 H       1  UNL11       0.0596
     49 H           6.6393   -0.6554    2.7261 H       1  UNL11       0.0290
     50 H           6.0715   -2.4238    2.9684 H       1  UNL11       0.0290
     51 H           7.7303   -3.2492    1.5018 H       1  UNL11       0.0267
     52 H           8.6246   -1.7064    2.0017 H       1  UNL11       0.0267
     53 H           7.5957   -0.4848    0.2424 H       1  UNL11       0.0290
     54 H           7.2912   -2.1181   -0.5898 H       1  UNL11       0.0290
     55 H           4.5834    1.7028   -0.3440 H       1  UNL11       0.0305
     56 H           4.3614    1.2019   -2.0366 H       1  UNL11       0.0305
     57 H           2.3489    2.0963   -1.4032 H       1  UNL11       0.0465
     58 H           2.3627    1.3157    0.2187 H       1  UNL11       0.0465
@<TRIPOS>BOND
     1     1     2    2
     2     2     3    1
     3     2    21   am
     4     3     4   ar
     5     4     5   ar
     6     4    32    1
     7     5     6   ar
     8     5    33    1
     9     6     7   ar
    10     6    34    1
    11     7     8    1
    12     7    20   ar
    13     8     9    1
    14     8    35    1
    15     8    36    1
    16     9    10    2
    17    10    11    1
    18    11    12   am
    19    11    37    1
    20    12    13    2
    21    12    14    1
    22    14    15   ar
    23    15    16   ar
    24    15    38    1
    25    16    17   ar
    26    16    39    1
    27    17    18   ar
    28    17    40    1
    29    18    19   ar
    30    18    41    1
    31    19     9    1
    32    19    14   ar
    33    20     3   ar
    34    20    42    1
    35    21    22    1
    36    22    23    1
    37    22    43    1
    38    22    44    1
    39    23    24    1
    40    23    45    1
    41    23    46    1
    42    24    25    1
    43    24    30    1
    44    24    47    1
    45    25    26    1
    46    26    27    1
    47    26    48    1
    48    27    28    1
    49    27    49    1
    50    27    50    1
    51    28    29    1
    52    28    51    1
    53    28    52    1
    54    29    26    1
    55    29    53    1
    56    29    54    1
    57    30    31    1
    58    30    55    1
    59    30    56    1
    60    31    21    1
    61    31    57    1
    62    31    58    1
@<TRIPOS>MOLECULE
*****
 58 62 0 0 0
SMALL
GASTEIGER

@<TRIPOS>ATOM
      1 O          -0.0342   -1.0722   -1.9409 O.2     1  UNL11      -0.2700
      2 C           0.4228    0.0376   -1.4084 C.2     1  UNL11       0.2466
      3 C          -0.5906    0.9631   -0.9780 C.ar    1  UNL11       0.0372
      4 C          -0.5127    2.3240   -0.9336 C.ar    1  UNL11      -0.0496
      5 C          -1.5488    3.1420   -0.5043 C.ar    1  UNL11      -0.0608
      6 C          -2.7210    2.5524   -0.1001 C.ar    1  UNL11      -0.0582
      7 C          -2.8585    1.1994   -0.1220 C.ar    1  UNL11      -0.0407
      8 C          -4.1326    0.5431    0.3164 C.3     1  UNL11       0.0211
      9 C          -4.3852    0.9277    1.7274 C.2     1  UNL11       0.1192
     10 N          -4.5560    2.1974    2.1218 N.2     1  UNL11      -0.0073
     11 N          -4.7783    2.5122    3.3787 N.am    1  UNL11      -0.0356
     12 C          -4.8371    1.5469    4.2928 C.2     1  UNL11       0.4383
     13 O          -5.0486    1.8534    5.4831 O.2     1  UNL11      -0.2116
     14 C          -4.6729    0.2308    3.9663 C.ar    1  UNL11       0.1004
     15 C          -4.7342   -0.7727    4.9187 C.ar    1  UNL11      -0.0441
     16 C          -4.5609   -2.0806    4.5295 C.ar    1  UNL11      -0.0608
     17 C          -4.3263   -2.4201    3.2068 C.ar    1  UNL11      -0.0611
     18 C          -4.2694   -1.4127    2.2800 C.ar    1  UNL11      -0.0518
     19 C          -4.4396   -0.1077    2.6519 C.ar    1  UNL11       0.0192
     20 C          -1.8174    0.4232   -0.5508 C.ar    1  UNL11      -0.0461
     21 N           1.8175    0.0996   -1.3656 N.am    1  UNL11      -0.2974
     22 C           2.5858   -1.0770   -1.9182 C.3     1  UNL11       0.0173
     23 C           3.4808   -1.4751   -0.7607 C.3     1  UNL11      -0.0107
     24 C           4.5346   -0.4054   -0.6438 C.3     1  UNL11       0.0619
     25 O           5.1323   -0.3805    0.6107 O.3     1  UNL11      -0.3732
     26 C           6.0947    0.6109    0.7370 C.3     1  UNL11       0.0591
     27 C           5.6277    2.0225    0.5545 C.3     1  UNL11      -0.0265
     28 C           6.7936    2.2490   -0.4171 C.3     1  UNL11      -0.0484
     29 C           6.8154    0.7472   -0.6130 C.3     1  UNL11      -0.0265
     30 C           4.0802    0.9572   -0.9918 C.3     1  UNL11      -0.0107
     31 C           2.5783    1.1725   -0.8509 C.3     1  UNL11       0.0173
     32 H           0.3666    2.8246   -1.2317 H       1  UNL11       0.0625
     33 H          -1.4165    4.2077   -0.4962 H       1  UNL11       0.0618
     34 H          -3.5307    3.1784    0.2348 H       1  UNL11       0.0620
     35 H          -4.9778    0.8684   -0.3312 H       1  UNL11       0.0379
     36 H          -4.0409   -0.5641    0.2520 H       1  UNL11       0.0379
     37 H          -4.9020    3.5180    3.6176 H       1  UNL11       0.4829
     38 H          -4.9174   -0.4761    5.9357 H       1  UNL11       0.0627
     39 H          -4.6116   -2.8412    5.2766 H       1  UNL11       0.0618
     40 H          -4.1906   -3.4413    2.9007 H       1  UNL11       0.0618
     41 H          -4.0882   -1.6171    1.2252 H       1  UNL11       0.0624
     42 H          -1.9608   -0.6553   -0.5557 H       1  UNL11       0.0628
     43 H           3.1701   -0.6336   -2.7462 H       1  UNL11       0.0465
     44 H           1.8846   -1.8530   -2.2063 H       1  UNL11       0.0465
     45 H           2.8315   -1.5234    0.1377 H       1  UNL11       0.0305
     46 H           3.9711   -2.4350   -0.9855 H       1  UNL11       0.0305
     47 H           5.3567   -0.6989   -1.3626 H       1  UNL11       0.0597
     48 H           6.8573    0.4547    1.5125 H       1  UNL11       0.0596
     49 H           4.6841    2.1231    0.0169 H       1  UNL11       0.0290
     50 H           5.7773    2.7089    1.4206 H       1  UNL11       0.0290
     51 H           7.7169    2.5872    0.0764 H       1  UNL11       0.0267
     52 H           6.5066    2.8345   -1.3033 H       1  UNL11       0.0267
     53 H           6.1642    0.4902   -1.4850 H       1  UNL11       0.0290
     54 H           7.8033    0.2779   -0.6356 H       1  UNL11       0.0290
     55 H           4.5834    1.7028   -0.3440 H       1  UNL11       0.0305
     56 H           4.3614    1.2019   -2.0366 H       1  UNL11       0.0305
     57 H           2.3489    2.0963   -1.4032 H       1  UNL11       0.0465
     58 H           2.3627    1.3157    0.2187 H       1  UNL11       0.0465
@<TRIPOS>BOND
     1     1     2    2
     2     2     3    1
     3     2    21   am
     4     3     4   ar
     5     4     5   ar
     6     4    32    1
     7     5     6   ar
     8     5    33    1
     9     6     7   ar
    10     6    34    1
    11     7     8    1
    12     7    20   ar
    13     8     9    1
    14     8    35    1
    15     8    36    1
    16     9    10    2
    17    10    11    1
    18    11    12   am
    19    11    37    1
    20    12    13    2
    21    12    14    1
    22    14    15   ar
    23    15    16   ar
    24    15    38    1
    25    16    17   ar
    26    16    39    1
    27    17    18   ar
    28    17    40    1
    29    18    19   ar
    30    18    41    1
    31    19     9    1
    32    19    14   ar
    33    20     3   ar
    34    20    42    1
    35    21    22    1
    36    22    23    1
    37    22    43    1
    38    22    44    1
    39    23    24    1
    40    23    45    1
    41    23    46    1
    42    24    25    1
    43    24    30    1
    44    24    47    1
    45    25    26    1
    46    26    27    1
    47    26    48    1
    48    27    28    1
    49    27    49    1
    50    27    50    1
    51    28    29    1
    52    28    51    1
    53    28    52    1
    54    29    26    1
    55    29    53    1
    56    29    54    1
    57    30    31    1
    58    30    55    1
    59    30    56    1
    60    31    21    1
    61    31    57    1
    62    31    58    1
@<TRIPOS>MOLECULE
*****
 58 62 0 0 0
SMALL
GASTEIGER

@<TRIPOS>ATOM
      1 O          -0.0342   -1.0722   -1.9409 O.2     1  UNL11      -0.2700
      2 C           0.4228    0.0376   -1.4084 C.2     1  UNL11       0.2466
      3 C          -0.5906    0.9631   -0.9780 C.ar    1  UNL11       0.0372
      4 C          -1.8390    1.1349   -1.4996 C.ar    1  UNL11      -0.0496
      5 C          -2.7572    2.0560   -1.0144 C.ar    1  UNL11      -0.0608
      6 C          -2.3928    2.8414    0.0511 C.ar    1  UNL11      -0.0582
      7 C          -1.1610    2.7158    0.6140 C.ar    1  UNL11      -0.0407
      8 C          -0.7507    3.5667    1.7775 C.3     1  UNL11       0.0211
      9 C           0.4427    4.3514    1.3741 C.2     1  UNL11       0.1192
     10 N           0.4697    5.6915    1.3639 N.2     1  UNL11      -0.0073
     11 N           1.5399    6.3638    1.0019 N.am    1  UNL11      -0.0356
     12 C           2.6333    5.7009    0.6331 C.2     1  UNL11       0.4383
     13 O           3.6447    6.3456    0.2912 O.2     1  UNL11      -0.2116
     14 C           2.6809    4.3359    0.6181 C.ar    1  UNL11       0.1004
     15 C           3.8194    3.6474    0.2341 C.ar    1  UNL11      -0.0441
     16 C           3.8072    2.2719    0.2393 C.ar    1  UNL11      -0.0608
     17 C           2.6832    1.5567    0.6196 C.ar    1  UNL11      -0.0611
     18 C           1.5672    2.2564    0.9962 C.ar    1  UNL11      -0.0518
     19 C           1.5642    3.6240    0.9960 C.ar    1  UNL11       0.0192
     20 C          -0.2806    1.7981    0.1109 C.ar    1  UNL11      -0.0461
     21 N           1.8175    0.0996   -1.3656 N.am    1  UNL11      -0.2974
     22 C           2.5858   -1.0770   -1.9182 C.3     1  UNL11       0.0173
     23 C           3.4808   -1.4751   -0.7607 C.3     1  UNL11      -0.0107
     24 C           4.5346   -0.4054   -0.6438 C.3     1  UNL11       0.0619
     25 O           5.1323   -0.3805    0.6107 O.3     1  UNL11      -0.3732
     26 C           5.7762   -1.5668    0.9319 C.3     1  UNL11       0.0591
     27 C           6.8964   -1.9847    0.0294 C.3     1  UNL11      -0.0265
     28 C           6.2659   -3.3811   -0.0541 C.3     1  UNL11      -0.0484
     29 C           4.9587   -2.7255    0.3405 C.3     1  UNL11      -0.0265
     30 C           4.0802    0.9572   -0.9918 C.3     1  UNL11      -0.0107
     31 C           2.5783    1.1725   -0.8509 C.3     1  UNL11       0.0173
     32 H          -2.1659    0.5575   -2.3196 H       1  UNL11       0.0625
     33 H          -3.7238    2.1366   -1.4755 H       1  UNL11       0.0618
     34 H          -3.0981    3.5591    0.4348 H       1  UNL11       0.0620
     35 H          -1.5814    4.2476    2.0706 H       1  UNL11       0.0379
     36 H          -0.4885    2.9292    2.6512 H       1  UNL11       0.0379
     37 H           1.4938    7.4038    1.0165 H       1  UNL11       0.4829
     38 H           4.6742    4.2316   -0.0555 H       1  UNL11       0.0627
     39 H           4.6935    1.7575   -0.0594 H       1  UNL11       0.0618
     40 H           2.6717    0.4820    0.6243 H       1  UNL11       0.0618
     41 H           0.6533    1.7500    1.3055 H       1  UNL11       0.0624
     42 H           0.6960    1.7236    0.5846 H       1  UNL11       0.0628
     43 H           3.1701   -0.6336   -2.7462 H       1  UNL11       0.0465
     44 H           1.8846   -1.8530   -2.2063 H       1  UNL11       0.0465
     45 H           2.8315   -1.5234    0.1377 H       1  UNL11       0.0305
     46 H           3.9711   -2.4350   -0.9855 H       1  UNL11       0.0305
     47 H           5.3567   -0.6989   -1.3626 H       1  UNL11       0.0597
     48 H           5.9221   -1.7685    2.0021 H       1  UNL11       0.0596
     49 H           6.8815   -1.5214   -0.9579 H       1  UNL11       0.0290
     50 H           7.8984   -2.0992    0.5051 H       1  UNL11       0.0290
     51 H           6.6084   -4.0654    0.7364 H       1  UNL11       0.0267
     52 H           6.2919   -3.8041   -1.0695 H       1  UNL11       0.0267
     53 H           4.4056   -2.4415   -0.5890 H       1  UNL11       0.0290
     54 H           4.3538   -3.2609    1.0780 H       1  UNL11       0.0290
     55 H           4.5834    1.7028   -0.3440 H       1  UNL11       0.0305
     56 H           4.3614    1.2019   -2.0366 H       1  UNL11       0.0305
     57 H           2.3489    2.0963   -1.4032 H       1  UNL11       0.0465
     58 H           2.3627    1.3157    0.2187 H       1  UNL11       0.0465
@<TRIPOS>BOND
     1     1     2    2
     2     2     3    1
     3     2    21   am
     4     3     4   ar
     5     4     5   ar
     6     4    32    1
     7     5     6   ar
     8     5    33    1
     9     6     7   ar
    10     6    34    1
    11     7     8    1
    12     7    20   ar
    13     8     9    1
    14     8    35    1
    15     8    36    1
    16     9    10    2
    17    10    11    1
    18    11    12   am
    19    11    37    1
    20    12    13    2
    21    12    14    1
    22    14    15   ar
    23    15    16   ar
    24    15    38    1
    25    16    17   ar
    26    16    39    1
    27    17    18   ar
    28    17    40    1
    29    18    19   ar
    30    18    41    1
    31    19     9    1
    32    19    14   ar
    33    20     3   ar
    34    20    42    1
    35    21    22    1
    36    22    23    1
    37    22    43    1
    38    22    44    1
    39    23    24    1
    40    23    45    1
    41    23    46    1
    42    24    25    1
    43    24    30    1
    44    24    47    1
    45    25    26    1
    46    26    27    1
    47    26    48    1
    48    27    28    1
    49    27    49    1
    50    27    50    1
    51    28    29    1
    52    28    51    1
    53    28    52    1
    54    29    26    1
    55    29    53    1
    56    29    54    1
    57    30    31    1
    58    30    55    1
    59    30    56    1
    60    31    21    1
    61    31    57    1
    62    31    58    1
@<TRIPOS>MOLECULE
*****
 58 62 0 0 0
SMALL
GASTEIGER

@<TRIPOS>ATOM
      1 O          -0.0342   -1.0722   -1.9409 O.2     1  UNL11      -0.2700
      2 C           0.4228    0.0376   -1.4084 C.2     1  UNL11       0.2466
      3 C          -0.5906    0.9631   -0.9780 C.ar    1  UNL11       0.0372
      4 C          -0.4125    2.1891   -0.4077 C.ar    1  UNL11      -0.0496
      5 C          -1.4563    3.0204   -0.0250 C.ar    1  UNL11      -0.0608
      6 C          -2.7433    2.5884   -0.2300 C.ar    1  UNL11      -0.0582
      7 C          -2.9841    1.3748   -0.7949 C.ar    1  UNL11      -0.0407
      8 C          -4.3840    0.8913   -1.0244 C.3     1  UNL11       0.0211
      9 C          -4.5647   -0.3700   -0.2635 C.2     1  UNL11       0.1192
     10 N          -5.7430   -0.7570    0.2449 N.2     1  UNL11      -0.0073
     11 N          -5.8770   -1.8795    0.9160 N.am    1  UNL11      -0.0356
     12 C          -4.8153   -2.6605    1.1002 C.2     1  UNL11       0.4383
     13 O          -4.9503   -3.7240    1.7376 O.2     1  UNL11      -0.2116
     14 C          -3.5826   -2.3323    0.6119 C.ar    1  UNL11       0.1004
     15 C          -2.4786   -3.1459    0.8044 C.ar    1  UNL11      -0.0441
     16 C          -1.2625   -2.7623    0.2888 C.ar    1  UNL11      -0.0608
     17 C          -1.1137   -1.5808   -0.4195 C.ar    1  UNL11      -0.0611
     18 C          -2.2179   -0.7900   -0.5991 C.ar    1  UNL11      -0.0518
     19 C          -3.4335   -1.1581   -0.0922 C.ar    1  UNL11       0.0192
     20 C          -1.9321    0.5809   -1.1601 C.ar    1  UNL11      -0.0461
     21 N           1.8175    0.0996   -1.3656 N.am    1  UNL11      -0.2974
     22 C           2.4431    1.3310   -0.7554 C.3     1  UNL11       0.0173
     23 C           3.3676    1.8239   -1.8515 C.3     1  UNL11      -0.0107
     24 C           4.5176    0.8532   -1.9134 C.3     1  UNL11       0.0619
     25 O           5.1902    0.9001   -3.1287 O.3     1  UNL11      -0.3732
     26 C           4.3756    0.6127   -4.2145 C.3     1  UNL11       0.0591
     27 C           3.2095    1.5266   -4.4354 C.3     1  UNL11      -0.0265
     28 C           2.3060    0.2924   -4.5581 C.3     1  UNL11      -0.0484
     29 C           3.3651   -0.4595   -3.7788 C.3     1  UNL11      -0.0265
     30 C           4.1660   -0.5492   -1.6072 C.3     1  UNL11      -0.0107
     31 C           2.7006   -0.8941   -1.8426 C.3     1  UNL11       0.0173
     32 H           0.5563    2.5653   -0.2275 H       1  UNL11       0.0625
     33 H          -1.2410    3.9743    0.4189 H       1  UNL11       0.0618
     34 H          -3.5599    3.2260    0.0635 H       1  UNL11       0.0620
     35 H          -5.1179    1.6569   -0.6856 H       1  UNL11       0.0379
     36 H          -4.5530    0.6910   -2.1061 H       1  UNL11       0.0379
     37 H          -6.8204   -2.1210    1.2843 H       1  UNL11       0.4829
     38 H          -2.6275   -4.0553    1.3583 H       1  UNL11       0.0627
     39 H          -0.4224   -3.4015    0.4464 H       1  UNL11       0.0618
     40 H          -0.1643   -1.2793   -0.8232 H       1  UNL11       0.0618
     41 H          -2.1636    0.1502   -1.1472 H       1  UNL11       0.0624
     42 H          -2.1601   -0.3836   -1.6092 H       1  UNL11       0.0628
     43 H           3.0132    0.9285    0.1029 H       1  UNL11       0.0465
     44 H           1.6594    2.0376   -0.5037 H       1  UNL11       0.0465
     45 H           2.7723    1.8282   -2.7878 H       1  UNL11       0.0305
     46 H           3.7560    2.8199   -1.5877 H       1  UNL11       0.0305
     47 H           5.2652    1.2073   -1.1424 H       1  UNL11       0.0597
     48 H           4.8805    0.2520   -5.1213 H       1  UNL11       0.0596
     49 H           2.9138    2.1058   -3.5598 H       1  UNL11       0.0290
     50 H           3.1783    2.0612   -5.4136 H       1  UNL11       0.0290
     51 H           2.2324   -0.0975   -5.5842 H       1  UNL11       0.0267
     52 H           1.3411    0.4136   -4.0434 H       1  UNL11       0.0267
     53 H           3.1134   -0.4076   -2.6905 H       1  UNL11       0.0290
     54 H           3.6054   -1.4646   -4.1375 H       1  UNL11       0.0290
     55 H           4.7720   -1.2377   -2.2298 H       1  UNL11       0.0305
     56 H           4.4040   -0.7838   -0.5494 H       1  UNL11       0.0305
     57 H           2.5212   -1.8428   -1.3144 H       1  UNL11       0.0465
     58 H           2.5638   -1.0397   -2.9248 H       1  UNL11       0.0465
@<TRIPOS>BOND
     1     1     2    2
     2     2     3    1
     3     2    21   am
     4     3     4   ar
     5     4     5   ar
     6     4    32    1
     7     5     6   ar
     8     5    33    1
     9     6     7   ar
    10     6    34    1
    11     7     8    1
    12     7    20   ar
    13     8     9    1
    14     8    35    1
    15     8    36    1
    16     9    10    2
    17    10    11    1
    18    11    12   am
    19    11    37    1
    20    12    13    2
    21    12    14    1
    22    14    15   ar
    23    15    16   ar
    24    15    38    1
    25    16    17   ar
    26    16    39    1
    27    17    18   ar
    28    17    40    1
    29    18    19   ar
    30    18    41    1
    31    19     9    1
    32    19    14   ar
    33    20     3   ar
    34    20    42    1
    35    21    22    1
    36    22    23    1
    37    22    43    1
    38    22    44    1
    39    23    24    1
    40    23    45    1
    41    23    46    1
    42    24    25    1
    43    24    30    1
    44    24    47    1
    45    25    26    1
    46    26    27    1
    47    26    48    1
    48    27    28    1
    49    27    49    1
    50    27    50    1
    51    28    29    1
    52    28    51    1
    53    28    52    1
    54    29    26    1
    55    29    53    1
    56    29    54    1
    57    30    31    1
    58    30    55    1
    59    30    56    1
    60    31    21    1
    61    31    57    1
    62    31    58    1
@<TRIPOS>MOLECULE
*****
 58 62 0 0 0
SMALL
GASTEIGER

@<TRIPOS>ATOM
      1 O          -0.0342   -1.0722   -1.9409 O.2     1  UNL11      -0.2700
      2 C           0.4228    0.0376   -1.4084 C.2     1  UNL11       0.2466
      3 C          -0.5906    0.9631   -0.9780 C.ar    1  UNL11       0.0372
      4 C          -1.8390    1.1349   -1.4996 C.ar    1  UNL11      -0.0496
      5 C          -2.7572    2.0560   -1.0144 C.ar    1  UNL11      -0.0608
      6 C          -2.3928    2.8414    0.0511 C.ar    1  UNL11      -0.0582
      7 C          -1.1610    2.7158    0.6140 C.ar    1  UNL11      -0.0407
      8 C          -0.7507    3.5667    1.7775 C.3     1  UNL11       0.0211
      9 C           0.4427    4.3514    1.3741 C.2     1  UNL11       0.1192
     10 N           1.6241    4.2635    2.0012 N.2     1  UNL11      -0.0073
     11 N           2.6668    4.9700    1.6244 N.am    1  UNL11      -0.0356
     12 C           2.5538    5.7996    0.5900 C.2     1  UNL11       0.4383
     13 O           3.5474    6.4664    0.2383 O.2     1  UNL11      -0.2116
     14 C           1.3824    5.9426   -0.0978 C.ar    1  UNL11       0.1004
     15 C           1.2662    6.8064   -1.1740 C.ar    1  UNL11      -0.0441
     16 C           0.0602    6.9077   -1.8277 C.ar    1  UNL11      -0.0608
     17 C          -1.0429    6.1663   -1.4364 C.ar    1  UNL11      -0.0611
     18 C          -0.9074    5.3175   -0.3696 C.ar    1  UNL11      -0.0518
     19 C           0.2852    5.2062    0.2903 C.ar    1  UNL11       0.0192
     20 C          -0.2806    1.7981    0.1109 C.ar    1  UNL11      -0.0461
     21 N           1.8175    0.0996   -1.3656 N.am    1  UNL11      -0.2974
     22 C           2.5858   -1.0770   -1.9182 C.3     1  UNL11       0.0173
     23 C           3.4808   -1.4751   -0.7607 C.3     1  UNL11      -0.0107
     24 C           4.5346   -0.4054   -0.6438 C.3     1  UNL11       0.0619
     25 O           5.1323   -0.3805    0.6107 O.3     1  UNL11      -0.3732
     26 C           5.7762   -1.5668    0.9319 C.3     1  UNL11       0.0591
     27 C           4.9293   -2.8021    0.9537 C.3     1  UNL11      -0.0265
     28 C           5.5167   -3.1423    2.3298 C.3     1  UNL11      -0.0484
     29 C           5.8450   -1.6696    2.4633 C.3     1  UNL11      -0.0265
     30 C           4.0802    0.9572   -0.9918 C.3     1  UNL11      -0.0107
     31 C           2.5783    1.1725   -0.8509 C.3     1  UNL11       0.0173
     32 H          -2.1659    0.5575   -2.3196 H       1  UNL11       0.0625
     33 H          -3.7238    2.1366   -1.4755 H       1  UNL11       0.0618
     34 H          -3.0981    3.5591    0.4348 H       1  UNL11       0.0620
     35 H          -1.5814    4.2476    2.0706 H       1  UNL11       0.0379
     36 H          -0.4885    2.9292    2.6512 H       1  UNL11       0.0379
     37 H           3.5551    4.8543    2.1549 H       1  UNL11       0.4829
     38 H           2.1403    7.3672   -1.4520 H       1  UNL11       0.0627
     39 H          -0.0114    7.5782   -2.6551 H       1  UNL11       0.0618
     40 H          -1.9861    6.2441   -1.9459 H       1  UNL11       0.0618
     41 H          -1.7387    4.7085   -0.0154 H       1  UNL11       0.0624
     42 H           0.6960    1.7236    0.5846 H       1  UNL11       0.0628
     43 H           3.1701   -0.6336   -2.7462 H       1  UNL11       0.0465
     44 H           1.8846   -1.8530   -2.2063 H       1  UNL11       0.0465
     45 H           2.8315   -1.5234    0.1377 H       1  UNL11       0.0305
     46 H           3.9711   -2.4350   -0.9855 H       1  UNL11       0.0305
     47 H           5.3567   -0.6989   -1.3626 H       1  UNL11       0.0597
     48 H           6.7950   -1.6908    0.5392 H       1  UNL11       0.0596
     49 H           3.8589   -2.6176    1.0528 H       1  UNL11       0.0290
     50 H           5.2261   -3.6178    0.2536 H       1  UNL11       0.0290
     51 H           6.4389   -3.7400    2.2779 H       1  UNL11       0.0267
     52 H           4.7635   -3.5219    3.0364 H       1  UNL11       0.0267
     53 H           4.9927   -1.1577    2.9753 H       1  UNL11       0.0290
     54 H           6.8284   -1.4303    2.8784 H       1  UNL11       0.0290
     55 H           4.5834    1.7028   -0.3440 H       1  UNL11       0.0305
     56 H           4.3614    1.2019   -2.0366 H       1  UNL11       0.0305
     57 H           2.3489    2.0963   -1.4032 H       1  UNL11       0.0465
     58 H           2.3627    1.3157    0.2187 H       1  UNL11       0.0465
@<TRIPOS>BOND
     1     1     2    2
     2     2     3    1
     3     2    21   am
     4     3     4   ar
     5     4     5   ar
     6     4    32    1
     7     5     6   ar
     8     5    33    1
     9     6     7   ar
    10     6    34    1
    11     7     8    1
    12     7    20   ar
    13     8     9    1
    14     8    35    1
    15     8    36    1
    16     9    10    2
    17    10    11    1
    18    11    12   am
    19    11    37    1
    20    12    13    2
    21    12    14    1
    22    14    15   ar
    23    15    16   ar
    24    15    38    1
    25    16    17   ar
    26    16    39    1
    27    17    18   ar
    28    17    40    1
    29    18    19   ar
    30    18    41    1
    31    19     9    1
    32    19    14   ar
    33    20     3   ar
    34    20    42    1
    35    21    22    1
    36    22    23    1
    37    22    43    1
    38    22    44    1
    39    23    24    1
    40    23    45    1
    41    23    46    1
    42    24    25    1
    43    24    30    1
    44    24    47    1
    45    25    26    1
    46    26    27    1
    47    26    48    1
    48    27    28    1
    49    27    49    1
    50    27    50    1
    51    28    29    1
    52    28    51    1
    53    28    52    1
    54    29    26    1
    55    29    53    1
    56    29    54    1
    57    30    31    1
    58    30    55    1
    59    30    56    1
    60    31    21    1
    61    31    57    1
    62    31    58    1
@<TRIPOS>MOLECULE
*****
 58 62 0 0 0
SMALL
GASTEIGER

@<TRIPOS>ATOM
      1 O          -0.0342   -1.0722   -1.9409 O.2     1  UNL11      -0.2700
      2 C           0.4228    0.0376   -1.4084 C.2     1  UNL11       0.2466
      3 C          -0.5906    0.9631   -0.9780 C.ar    1  UNL11       0.0372
      4 C          -0.5127    2.3240   -0.9336 C.ar    1  UNL11      -0.0496
      5 C          -1.5488    3.1420   -0.5043 C.ar    1  UNL11      -0.0608
      6 C          -2.7210    2.5524   -0.1001 C.ar    1  UNL11      -0.0582
      7 C          -2.8585    1.1994   -0.1220 C.ar    1  UNL11      -0.0407
      8 C          -4.1326    0.5431    0.3164 C.3     1  UNL11       0.0211
      9 C          -4.2898   -0.7151   -0.4549 C.2     1  UNL11       0.1192
     10 N          -5.3389   -1.5369   -0.3108 N.2     1  UNL11      -0.0073
     11 N          -5.4549   -2.6466   -1.0062 N.am    1  UNL11      -0.0356
     12 C          -4.5063   -2.9704   -1.8815 C.2     1  UNL11       0.4383
     13 O          -4.6234   -4.0246   -2.5377 O.2     1  UNL11      -0.2116
     14 C          -3.4086   -2.1829   -2.0828 C.ar    1  UNL11       0.1004
     15 C          -2.4222   -2.5212   -2.9941 C.ar    1  UNL11      -0.0441
     16 C          -1.3394   -1.6879   -3.1532 C.ar    1  UNL11      -0.0608
     17 C          -1.2103   -0.5169   -2.4240 C.ar    1  UNL11      -0.0611
     18 C          -2.1970   -0.2001   -1.5278 C.ar    1  UNL11      -0.0518
     19 C          -3.2793   -1.0187   -1.3585 C.ar    1  UNL11       0.0192
     20 C          -1.8174    0.4232   -0.5508 C.ar    1  UNL11      -0.0461
     21 N           1.8175    0.0996   -1.3656 N.am    1  UNL11      -0.2974
     22 C           2.5858   -1.0770   -1.9182 C.3     1  UNL11       0.0173
     23 C           3.4808   -1.4751   -0.7607 C.3     1  UNL11      -0.0107
     24 C           4.5346   -0.4054   -0.6438 C.3     1  UNL11       0.0619
     25 O           5.1323   -0.3805    0.6107 O.3     1  UNL11      -0.3732
     26 C           5.7762   -1.5668    0.9319 C.3     1  UNL11       0.0591
     27 C           6.8964   -1.9847    0.0294 C.3     1  UNL11      -0.0265
     28 C           6.2659   -3.3811   -0.0541 C.3     1  UNL11      -0.0484
     29 C           4.9587   -2.7255    0.3405 C.3     1  UNL11      -0.0265
     30 C           4.0802    0.9572   -0.9918 C.3     1  UNL11      -0.0107
     31 C           2.5783    1.1725   -0.8509 C.3     1  UNL11       0.0173
     32 H           0.3666    2.8246   -1.2317 H       1  UNL11       0.0625
     33 H          -1.4165    4.2077   -0.4962 H       1  UNL11       0.0618
     34 H          -3.5307    3.1784    0.2348 H       1  UNL11       0.0620
     35 H          -4.1005    0.3271    1.4081 H       1  UNL11       0.0379
     36 H          -5.0018    1.2070    0.1107 H       1  UNL11       0.0379
     37 H          -6.2950   -3.2402   -0.8456 H       1  UNL11       0.4829
     38 H          -2.5520   -3.4361   -3.5435 H       1  UNL11       0.0627
     39 H          -0.5887   -1.9641   -3.8600 H       1  UNL11       0.0618
     40 H          -0.3651    0.1355   -2.5468 H       1  UNL11       0.0618
     41 H          -2.1515    0.7071   -0.9259 H       1  UNL11       0.0624
     42 H          -1.9608   -0.6553   -0.5557 H       1  UNL11       0.0628
     43 H           3.1701   -0.6336   -2.7462 H       1  UNL11       0.0465
     44 H           1.8846   -1.8530   -2.2063 H       1  UNL11       0.0465
     45 H           2.8315   -1.5234    0.1377 H       1  UNL11       0.0305
     46 H           3.9711   -2.4350   -0.9855 H       1  UNL11       0.0305
     47 H           5.3567   -0.6989   -1.3626 H       1  UNL11       0.0597
     48 H           5.9221   -1.7685    2.0021 H       1  UNL11       0.0596
     49 H           6.8815   -1.5214   -0.9579 H       1  UNL11       0.0290
     50 H           7.8984   -2.0992    0.5051 H       1  UNL11       0.0290
     51 H           6.6084   -4.0654    0.7364 H       1  UNL11       0.0267
     52 H           6.2919   -3.8041   -1.0695 H       1  UNL11       0.0267
     53 H           4.4056   -2.4415   -0.5890 H       1  UNL11       0.0290
     54 H           4.3538   -3.2609    1.0780 H       1  UNL11       0.0290
     55 H           4.5834    1.7028   -0.3440 H       1  UNL11       0.0305
     56 H           4.3614    1.2019   -2.0366 H       1  UNL11       0.0305
     57 H           2.3489    2.0963   -1.4032 H       1  UNL11       0.0465
     58 H           2.3627    1.3157    0.2187 H       1  UNL11       0.0465
@<TRIPOS>BOND
     1     1     2    2
     2     2     3    1
     3     2    21   am
     4     3     4   ar
     5     4     5   ar
     6     4    32    1
     7     5     6   ar
     8     5    33    1
     9     6     7   ar
    10     6    34    1
    11     7     8    1
    12     7    20   ar
    13     8     9    1
    14     8    35    1
    15     8    36    1
    16     9    10    2
    17    10    11    1
    18    11    12   am
    19    11    37    1
    20    12    13    2
    21    12    14    1
    22    14    15   ar
    23    15    16   ar
    24    15    38    1
    25    16    17   ar
    26    16    39    1
    27    17    18   ar
    28    17    40    1
    29    18    19   ar
    30    18    41    1
    31    19     9    1
    32    19    14   ar
    33    20     3   ar
    34    20    42    1
    35    21    22    1
    36    22    23    1
    37    22    43    1
    38    22    44    1
    39    23    24    1
    40    23    45    1
    41    23    46    1
    42    24    25    1
    43    24    30    1
    44    24    47    1
    45    25    26    1
    46    26    27    1
    47    26    48    1
    48    27    28    1
    49    27    49    1
    50    27    50    1
    51    28    29    1
    52    28    51    1
    53    28    52    1
    54    29    26    1
    55    29    53    1
    56    29    54    1
    57    30    31    1
    58    30    55    1
    59    30    56    1
    60    31    21    1
    61    31    57    1
    62    31    58    1
@<TRIPOS>MOLECULE
*****
 58 62 0 0 0
SMALL
GASTEIGER

@<TRIPOS>ATOM
      1 O          -0.0342   -1.0722   -1.9409 O.2     1  UNL11      -0.2700
      2 C           0.4228    0.0376   -1.4084 C.2     1  UNL11       0.2466
      3 C          -0.5906    0.9631   -0.9780 C.ar    1  UNL11       0.0372
      4 C          -1.8390    1.1349   -1.4996 C.ar    1  UNL11      -0.0496
      5 C          -2.7572    2.0560   -1.0144 C.ar    1  UNL11      -0.0608
      6 C          -2.3928    2.8414    0.0511 C.ar    1  UNL11      -0.0582
      7 C          -1.1610    2.7158    0.6140 C.ar    1  UNL11      -0.0407
      8 C          -0.7507    3.5667    1.7775 C.3     1  UNL11       0.0211
      9 C          -0.8336    4.9881    1.3586 C.2     1  UNL11       0.1192
     10 N           0.1940    5.6521    0.8111 N.2     1  UNL11      -0.0073
     11 N           0.0951    6.9119    0.4485 N.am    1  UNL11      -0.0356
     12 C          -1.0567    7.5540    0.6271 C.2     1  UNL11       0.4383
     13 O          -1.1429    8.7490    0.2804 O.2     1  UNL11      -0.2116
     14 C          -2.1471    6.9435    1.1785 C.ar    1  UNL11       0.1004
     15 C          -3.3451    7.6130    1.3639 C.ar    1  UNL11      -0.0441
     16 C          -4.4089    6.9451    1.9245 C.ar    1  UNL11      -0.0608
     17 C          -4.3122    5.6175    2.3091 C.ar    1  UNL11      -0.0611
     18 C          -3.1186    4.9730    2.1172 C.ar    1  UNL11      -0.0518
     19 C          -2.0521    5.6239    1.5612 C.ar    1  UNL11       0.0192
     20 C          -0.2806    1.7981    0.1109 C.ar    1  UNL11      -0.0461
     21 N           1.8175    0.0996   -1.3656 N.am    1  UNL11      -0.2974
     22 C           2.5858   -1.0770   -1.9182 C.3     1  UNL11       0.0173
     23 C           3.4808   -1.4751   -0.7607 C.3     1  UNL11      -0.0107
     24 C           4.5346   -0.4054   -0.6438 C.3     1  UNL11       0.0619
     25 O           5.1323   -0.3805    0.6107 O.3     1  UNL11      -0.3732
     26 C           6.0947    0.6109    0.7370 C.3     1  UNL11       0.0591
     27 C           5.6277    2.0225    0.5545 C.3     1  UNL11      -0.0265
     28 C           6.7936    2.2490   -0.4171 C.3     1  UNL11      -0.0484
     29 C           6.8154    0.7472   -0.6130 C.3     1  UNL11      -0.0265
     30 C           4.0802    0.9572   -0.9918 C.3     1  UNL11      -0.0107
     31 C           2.5783    1.1725   -0.8509 C.3     1  UNL11       0.0173
     32 H          -2.1659    0.5575   -2.3196 H       1  UNL11       0.0625
     33 H          -3.7238    2.1366   -1.4755 H       1  UNL11       0.0618
     34 H          -3.0981    3.5591    0.4348 H       1  UNL11       0.0620
     35 H          -1.4190    3.3796    2.6481 H       1  UNL11       0.0379
     36 H           0.2961    3.3362    2.0769 H       1  UNL11       0.0379
     37 H           0.9316    7.3685    0.0294 H       1  UNL11       0.4829
     38 H          -3.3872    8.6420    1.0553 H       1  UNL11       0.0627
     39 H          -5.3247    7.4764    2.0598 H       1  UNL11       0.0618
     40 H          -5.1422    5.0939    2.7473 H       1  UNL11       0.0618
     41 H          -2.9815    3.9295    2.3991 H       1  UNL11       0.0624
     42 H           0.6960    1.7236    0.5846 H       1  UNL11       0.0628
     43 H           3.1701   -0.6336   -2.7462 H       1  UNL11       0.0465
     44 H           1.8846   -1.8530   -2.2063 H       1  UNL11       0.0465
     45 H           2.8315   -1.5234    0.1377 H       1  UNL11       0.0305
     46 H           3.9711   -2.4350   -0.9855 H       1  UNL11       0.0305
     47 H           5.3567   -0.6989   -1.3626 H       1  UNL11       0.0597
     48 H           6.8573    0.4547    1.5125 H       1  UNL11       0.0596
     49 H           4.6841    2.1231    0.0169 H       1  UNL11       0.0290
     50 H           5.7773    2.7089    1.4206 H       1  UNL11       0.0290
     51 H           7.7169    2.5872    0.0764 H       1  UNL11       0.0267
     52 H           6.5066    2.8345   -1.3033 H       1  UNL11       0.0267
     53 H           6.1642    0.4902   -1.4850 H       1  UNL11       0.0290
     54 H           7.8033    0.2779   -0.6356 H       1  UNL11       0.0290
     55 H           4.5834    1.7028   -0.3440 H       1  UNL11       0.0305
     56 H           4.3614    1.2019   -2.0366 H       1  UNL11       0.0305
     57 H           2.3489    2.0963   -1.4032 H       1  UNL11       0.0465
     58 H           2.3627    1.3157    0.2187 H       1  UNL11       0.0465
@<TRIPOS>BOND
     1     1     2    2
     2     2     3    1
     3     2    21   am
     4     3     4   ar
     5     4     5   ar
     6     4    32    1
     7     5     6   ar
     8     5    33    1
     9     6     7   ar
    10     6    34    1
    11     7     8    1
    12     7    20   ar
    13     8     9    1
    14     8    35    1
    15     8    36    1
    16     9    10    2
    17    10    11    1
    18    11    12   am
    19    11    37    1
    20    12    13    2
    21    12    14    1
    22    14    15   ar
    23    15    16   ar
    24    15    38    1
    25    16    17   ar
    26    16    39    1
    27    17    18   ar
    28    17    40    1
    29    18    19   ar
    30    18    41    1
    31    19     9    1
    32    19    14   ar
    33    20     3   ar
    34    20    42    1
    35    21    22    1
    36    22    23    1
    37    22    43    1
    38    22    44    1
    39    23    24    1
    40    23    45    1
    41    23    46    1
    42    24    25    1
    43    24    30    1
    44    24    47    1
    45    25    26    1
    46    26    27    1
    47    26    48    1
    48    27    28    1
    49    27    49    1
    50    27    50    1
    51    28    29    1
    52    28    51    1
    53    28    52    1
    54    29    26    1
    55    29    53    1
    56    29    54    1
    57    30    31    1
    58    30    55    1
    59    30    56    1
    60    31    21    1
    61    31    57    1
    62    31    58    1
@<TRIPOS>MOLECULE
*****
 58 62 0 0 0
SMALL
GASTEIGER

@<TRIPOS>ATOM
      1 O          -0.0342   -1.0722   -1.9409 O.2     1  UNL11      -0.2700
      2 C           0.4228    0.0376   -1.4084 C.2     1  UNL11       0.2466
      3 C          -0.5906    0.9631   -0.9780 C.ar    1  UNL11       0.0372
      4 C          -0.5223    1.8554    0.0511 C.ar    1  UNL11      -0.0496
      5 C          -1.5551    2.7173    0.3940 C.ar    1  UNL11      -0.0608
      6 C          -2.7135    2.6729   -0.3416 C.ar    1  UNL11      -0.0582
      7 C          -2.8408    1.8038   -1.3800 C.ar    1  UNL11      -0.0407
      8 C          -4.0998    1.7452   -2.1911 C.3     1  UNL11       0.0211
      9 C          -5.2309    2.1321   -1.3116 C.2     1  UNL11       0.1192
     10 N          -5.5450    1.4717   -0.1882 N.2     1  UNL11      -0.0073
     11 N          -6.5528    1.8345    0.5741 N.am    1  UNL11      -0.0356
     12 C          -7.2878    2.8881    0.2267 C.2     1  UNL11       0.4383
     13 O          -8.2421    3.2263    0.9551 O.2     1  UNL11      -0.2116
     14 C          -7.0282    3.6100   -0.9034 C.ar    1  UNL11       0.1004
     15 C          -7.7940    4.7061   -1.2638 C.ar    1  UNL11      -0.0441
     16 C          -7.4840    5.3940   -2.4139 C.ar    1  UNL11      -0.0608
     17 C          -6.4235    5.0177   -3.2222 C.ar    1  UNL11      -0.0611
     18 C          -5.6782    3.9307   -2.8482 C.ar    1  UNL11      -0.0518
     19 C          -5.9743    3.2367   -1.7076 C.ar    1  UNL11       0.0192
     20 C          -1.8035    0.9684   -1.6907 C.ar    1  UNL11      -0.0461
     21 N           1.8175    0.0996   -1.3656 N.am    1  UNL11      -0.2974
     22 C           2.5858   -1.0770   -1.9182 C.3     1  UNL11       0.0173
     23 C           3.4808   -1.4751   -0.7607 C.3     1  UNL11      -0.0107
     24 C           4.5346   -0.4054   -0.6438 C.3     1  UNL11       0.0619
     25 O           5.1323   -0.3805    0.6107 O.3     1  UNL11      -0.3732
     26 C           4.2301   -0.1564    1.6406 C.3     1  UNL11       0.0591
     27 C           3.1378   -1.1684    1.8040 C.3     1  UNL11      -0.0265
     28 C           2.1231   -0.0183    1.8532 C.3     1  UNL11      -0.0484
     29 C           3.1578    0.8174    1.1284 C.3     1  UNL11      -0.0265
     30 C           4.0802    0.9572   -0.9918 C.3     1  UNL11      -0.0107
     31 C           2.5783    1.1725   -0.8509 C.3     1  UNL11       0.0173
     32 H           0.3449    1.9271    0.6473 H       1  UNL11       0.0625
     33 H          -1.4308    3.3948    1.2180 H       1  UNL11       0.0618
     34 H          -3.5205    3.3375   -0.0834 H       1  UNL11       0.0620
     35 H          -4.0316    2.4362   -3.0614 H       1  UNL11       0.0379
     36 H          -4.2699    0.7125   -2.5695 H       1  UNL11       0.0379
     37 H          -6.7428    1.2780    1.4333 H       1  UNL11       0.4829
     38 H          -8.6095    4.9718   -0.6156 H       1  UNL11       0.0627
     39 H          -8.0846    6.2365   -2.6763 H       1  UNL11       0.0618
     40 H          -6.1797    5.5539   -4.1212 H       1  UNL11       0.0618
     41 H          -4.8322    3.5868   -3.4426 H       1  UNL11       0.0624
     42 H          -1.9385    0.2859   -2.5271 H       1  UNL11       0.0628
     43 H           3.1701   -0.6336   -2.7462 H       1  UNL11       0.0465
     44 H           1.8846   -1.8530   -2.2063 H       1  UNL11       0.0465
     45 H           2.8315   -1.5234    0.1377 H       1  UNL11       0.0305
     46 H           3.9711   -2.4350   -0.9855 H       1  UNL11       0.0305
     47 H           5.3567   -0.6989   -1.3626 H       1  UNL11       0.0597
     48 H           4.6443    0.2565    2.5708 H       1  UNL11       0.0596
     49 H           2.9490   -1.7800    0.9209 H       1  UNL11       0.0290
     50 H           3.0936   -1.6942    2.7864 H       1  UNL11       0.0290
     51 H           1.9521    0.3732    2.8670 H       1  UNL11       0.0267
     52 H           1.2063   -0.2299    1.2828 H       1  UNL11       0.0267
     53 H           2.9793    0.7328    0.0277 H       1  UNL11       0.0290
     54 H           3.2858    1.8433    1.4858 H       1  UNL11       0.0290
     55 H           4.5834    1.7028   -0.3440 H       1  UNL11       0.0305
     56 H           4.3614    1.2019   -2.0366 H       1  UNL11       0.0305
     57 H           2.3489    2.0963   -1.4032 H       1  UNL11       0.0465
     58 H           2.3627    1.3157    0.2187 H       1  UNL11       0.0465
@<TRIPOS>BOND
     1     1     2    2
     2     2     3    1
     3     2    21   am
     4     3     4   ar
     5     4     5   ar
     6     4    32    1
     7     5     6   ar
     8     5    33    1
     9     6     7   ar
    10     6    34    1
    11     7     8    1
    12     7    20   ar
    13     8     9    1
    14     8    35    1
    15     8    36    1
    16     9    10    2
    17    10    11    1
    18    11    12   am
    19    11    37    1
    20    12    13    2
    21    12    14    1
    22    14    15   ar
    23    15    16   ar
    24    15    38    1
    25    16    17   ar
    26    16    39    1
    27    17    18   ar
    28    17    40    1
    29    18    19   ar
    30    18    41    1
    31    19     9    1
    32    19    14   ar
    33    20     3   ar
    34    20    42    1
    35    21    22    1
    36    22    23    1
    37    22    43    1
    38    22    44    1
    39    23    24    1
    40    23    45    1
    41    23    46    1
    42    24    25    1
    43    24    30    1
    44    24    47    1
    45    25    26    1
    46    26    27    1
    47    26    48    1
    48    27    28    1
    49    27    49    1
    50    27    50    1
    51    28    29    1
    52    28    51    1
    53    28    52    1
    54    29    26    1
    55    29    53    1
    56    29    54    1
    57    30    31    1
    58    30    55    1
    59    30    56    1
    60    31    21    1
    61    31    57    1
    62    31    58    1
@<TRIPOS>MOLECULE
*****
 58 62 0 0 0
SMALL
GASTEIGER

@<TRIPOS>ATOM
      1 O          -0.0342   -1.0722   -1.9409 O.2     1  UNL11      -0.2700
      2 C           0.4228    0.0376   -1.4084 C.2     1  UNL11       0.2466
      3 C          -0.5906    0.9631   -0.9780 C.ar    1  UNL11       0.0372
      4 C          -0.5127    2.3240   -0.9336 C.ar    1  UNL11      -0.0496
      5 C          -1.5488    3.1420   -0.5043 C.ar    1  UNL11      -0.0608
      6 C          -2.7210    2.5524   -0.1001 C.ar    1  UNL11      -0.0582
      7 C          -2.8585    1.1994   -0.1220 C.ar    1  UNL11      -0.0407
      8 C          -4.1326    0.5431    0.3164 C.3     1  UNL11       0.0211
      9 C          -3.7933   -0.7871    0.8804 C.2     1  UNL11       0.1192
     10 N          -3.5195   -0.9852    2.1775 N.2     1  UNL11      -0.0073
     11 N          -3.2213   -2.1742    2.6526 N.am    1  UNL11      -0.0356
     12 C          -3.1884   -3.2175    1.8271 C.2     1  UNL11       0.4383
     13 O          -2.9050   -4.3423    2.2853 O.2     1  UNL11      -0.2116
     14 C          -3.4560   -3.0931    0.4934 C.ar    1  UNL11       0.1004
     15 C          -3.4213   -4.1797   -0.3645 C.ar    1  UNL11      -0.0441
     16 C          -3.7000   -3.9924   -1.6983 C.ar    1  UNL11      -0.0608
     17 C          -4.0151   -2.7425   -2.2063 C.ar    1  UNL11      -0.0611
     18 C          -4.0442   -1.6805   -1.3412 C.ar    1  UNL11      -0.0518
     19 C          -3.7692   -1.8511   -0.0125 C.ar    1  UNL11       0.0192
     20 C          -1.8174    0.4232   -0.5508 C.ar    1  UNL11      -0.0461
     21 N           1.8175    0.0996   -1.3656 N.am    1  UNL11      -0.2974
     22 C           2.5858   -1.0770   -1.9182 C.3     1  UNL11       0.0173
     23 C           3.4808   -1.4751   -0.7607 C.3     1  UNL11      -0.0107
     24 C           4.5346   -0.4054   -0.6438 C.3     1  UNL11       0.0619
     25 O           5.1323   -0.3805    0.6107 O.3     1  UNL11      -0.3732
     26 C           4.2301   -0.1564    1.6406 C.3     1  UNL11       0.0591
     27 C           4.7979   -0.0988    3.0255 C.3     1  UNL11      -0.0265
     28 C           3.7124   -1.0848    3.4774 C.3     1  UNL11      -0.0484
     29 C           3.6059   -1.5063    2.0265 C.3     1  UNL11      -0.0265
     30 C           4.0802    0.9572   -0.9918 C.3     1  UNL11      -0.0107
     31 C           2.5783    1.1725   -0.8509 C.3     1  UNL11       0.0173
     32 H           0.3666    2.8246   -1.2317 H       1  UNL11       0.0625
     33 H          -1.4165    4.2077   -0.4962 H       1  UNL11       0.0618
     34 H          -3.5307    3.1784    0.2348 H       1  UNL11       0.0620
     35 H          -4.6466    1.1685    1.0808 H       1  UNL11       0.0379
     36 H          -4.8172    0.4069   -0.5504 H       1  UNL11       0.0379
     37 H          -3.0188   -2.2588    3.6703 H       1  UNL11       0.4829
     38 H          -3.1733   -5.1355    0.0609 H       1  UNL11       0.0627
     39 H          -3.6690   -4.8409   -2.3452 H       1  UNL11       0.0618
     40 H          -4.2331   -2.5940   -3.2482 H       1  UNL11       0.0618
     41 H          -4.2854   -0.6737   -1.6812 H       1  UNL11       0.0624
     42 H          -1.9608   -0.6553   -0.5557 H       1  UNL11       0.0628
     43 H           3.1701   -0.6336   -2.7462 H       1  UNL11       0.0465
     44 H           1.8846   -1.8530   -2.2063 H       1  UNL11       0.0465
     45 H           2.8315   -1.5234    0.1377 H       1  UNL11       0.0305
     46 H           3.9711   -2.4350   -0.9855 H       1  UNL11       0.0305
     47 H           5.3567   -0.6989   -1.3626 H       1  UNL11       0.0597
     48 H           3.4117    0.5454    1.4283 H       1  UNL11       0.0596
     49 H           5.7780   -0.5647    3.1347 H       1  UNL11       0.0290
     50 H           4.6389    0.8520    3.5861 H       1  UNL11       0.0290
     51 H           2.7838   -0.5950    3.8061 H       1  UNL11       0.0267
     52 H           4.0919   -1.8560    4.1643 H       1  UNL11       0.0267
     53 H           4.2927   -2.3717    1.8536 H       1  UNL11       0.0290
     54 H           2.5931   -1.6514    1.6394 H       1  UNL11       0.0290
     55 H           4.5834    1.7028   -0.3440 H       1  UNL11       0.0305
     56 H           4.3614    1.2019   -2.0366 H       1  UNL11       0.0305
     57 H           2.3489    2.0963   -1.4032 H       1  UNL11       0.0465
     58 H           2.3627    1.3157    0.2187 H       1  UNL11       0.0465
@<TRIPOS>BOND
     1     1     2    2
     2     2     3    1
     3     2    21   am
     4     3     4   ar
     5     4     5   ar
     6     4    32    1
     7     5     6   ar
     8     5    33    1
     9     6     7   ar
    10     6    34    1
    11     7     8    1
    12     7    20   ar
    13     8     9    1
    14     8    35    1
    15     8    36    1
    16     9    10    2
    17    10    11    1
    18    11    12   am
    19    11    37    1
    20    12    13    2
    21    12    14    1
    22    14    15   ar
    23    15    16   ar
    24    15    38    1
    25    16    17   ar
    26    16    39    1
    27    17    18   ar
    28    17    40    1
    29    18    19   ar
    30    18    41    1
    31    19     9    1
    32    19    14   ar
    33    20     3   ar
    34    20    42    1
    35    21    22    1
    36    22    23    1
    37    22    43    1
    38    22    44    1
    39    23    24    1
    40    23    45    1
    41    23    46    1
    42    24    25    1
    43    24    30    1
    44    24    47    1
    45    25    26    1
    46    26    27    1
    47    26    48    1
    48    27    28    1
    49    27    49    1
    50    27    50    1
    51    28    29    1
    52    28    51    1
    53    28    52    1
    54    29    26    1
    55    29    53    1
    56    29    54    1
    57    30    31    1
    58    30    55    1
    59    30    56    1
    60    31    21    1
    61    31    57    1
    62    31    58    1
@<TRIPOS>MOLECULE
*****
 58 62 0 0 0
SMALL
GASTEIGER

@<TRIPOS>ATOM
      1 O          -0.0342   -1.0722   -1.9409 O.2     1  UNL11      -0.2700
      2 C           0.4228    0.0376   -1.4084 C.2     1  UNL11       0.2466
      3 C          -0.5906    0.9631   -0.9780 C.ar    1  UNL11       0.0372
      4 C          -1.8390    1.1349   -1.4996 C.ar    1  UNL11      -0.0496
      5 C          -2.7572    2.0560   -1.0144 C.ar    1  UNL11      -0.0608
      6 C          -2.3928    2.8414    0.0511 C.ar    1  UNL11      -0.0582
      7 C          -1.1610    2.7158    0.6140 C.ar    1  UNL11      -0.0407
      8 C          -0.7507    3.5667    1.7775 C.3     1  UNL11       0.0211
      9 C           0.2066    2.7872    2.6013 C.2     1  UNL11       0.1192
     10 N           0.7566    3.2588    3.7291 N.2     1  UNL11      -0.0073
     11 N           1.6028    2.5481    4.4413 N.am    1  UNL11      -0.0356
     12 C           1.9281    1.3227    4.0369 C.2     1  UNL11       0.4383
     13 O           2.7314    0.6546    4.7179 O.2     1  UNL11      -0.2116
     14 C           1.4084    0.7751    2.8985 C.ar    1  UNL11       0.1004
     15 C           1.7479   -0.5002    2.4788 C.ar    1  UNL11      -0.0441
     16 C           1.1918   -0.9981    1.3235 C.ar    1  UNL11      -0.0608
     17 C           0.2993   -0.2552    0.5677 C.ar    1  UNL11      -0.0611
     18 C          -0.0236    1.0041    1.0000 C.ar    1  UNL11      -0.0518
     19 C           0.5212    1.5128    2.1466 C.ar    1  UNL11       0.0192
     20 C          -0.2806    1.7981    0.1109 C.ar    1  UNL11      -0.0461
     21 N           1.8175    0.0996   -1.3656 N.am    1  UNL11      -0.2974
     22 C           2.5858   -1.0770   -1.9182 C.3     1  UNL11       0.0173
     23 C           3.4808   -1.4751   -0.7607 C.3     1  UNL11      -0.0107
     24 C           4.5346   -0.4054   -0.6438 C.3     1  UNL11       0.0619
     25 O           5.1323   -0.3805    0.6107 O.3     1  UNL11      -0.3732
     26 C           6.0947    0.6109    0.7370 C.3     1  UNL11       0.0591
     27 C           5.6277    2.0225    0.5545 C.3     1  UNL11      -0.0265
     28 C           6.7936    2.2490   -0.4171 C.3     1  UNL11      -0.0484
     29 C           6.8154    0.7472   -0.6130 C.3     1  UNL11      -0.0265
     30 C           4.0802    0.9572   -0.9918 C.3     1  UNL11      -0.0107
     31 C           2.5783    1.1725   -0.8509 C.3     1  UNL11       0.0173
     32 H          -2.1659    0.5575   -2.3196 H       1  UNL11       0.0625
     33 H          -3.7238    2.1366   -1.4755 H       1  UNL11       0.0618
     34 H          -3.0981    3.5591    0.4348 H       1  UNL11       0.0620
     35 H          -0.2768    4.5085    1.4197 H       1  UNL11       0.0379
     36 H          -1.6364    3.8280    2.3987 H       1  UNL11       0.0379
     37 H           1.9936    2.9742    5.3071 H       1  UNL11       0.4829
     38 H           2.4430   -1.0503    3.0872 H       1  UNL11       0.0627
     39 H           1.4644   -1.9829    1.0149 H       1  UNL11       0.0618
     40 H          -0.1362   -0.6424   -0.3353 H       1  UNL11       0.0618
     41 H          -0.7194    1.6360    0.4487 H       1  UNL11       0.0624
     42 H           0.6960    1.7236    0.5846 H       1  UNL11       0.0628
     43 H           3.1701   -0.6336   -2.7462 H       1  UNL11       0.0465
     44 H           1.8846   -1.8530   -2.2063 H       1  UNL11       0.0465
     45 H           2.8315   -1.5234    0.1377 H       1  UNL11       0.0305
     46 H           3.9711   -2.4350   -0.9855 H       1  UNL11       0.0305
     47 H           5.3567   -0.6989   -1.3626 H       1  UNL11       0.0597
     48 H           6.8573    0.4547    1.5125 H       1  UNL11       0.0596
     49 H           4.6841    2.1231    0.0169 H       1  UNL11       0.0290
     50 H           5.7773    2.7089    1.4206 H       1  UNL11       0.0290
     51 H           7.7169    2.5872    0.0764 H       1  UNL11       0.0267
     52 H           6.5066    2.8345   -1.3033 H       1  UNL11       0.0267
     53 H           6.1642    0.4902   -1.4850 H       1  UNL11       0.0290
     54 H           7.8033    0.2779   -0.6356 H       1  UNL11       0.0290
     55 H           4.5834    1.7028   -0.3440 H       1  UNL11       0.0305
     56 H           4.3614    1.2019   -2.0366 H       1  UNL11       0.0305
     57 H           2.3489    2.0963   -1.4032 H       1  UNL11       0.0465
     58 H           2.3627    1.3157    0.2187 H       1  UNL11       0.0465
@<TRIPOS>BOND
     1     1     2    2
     2     2     3    1
     3     2    21   am
     4     3     4   ar
     5     4     5   ar
     6     4    32    1
     7     5     6   ar
     8     5    33    1
     9     6     7   ar
    10     6    34    1
    11     7     8    1
    12     7    20   ar
    13     8     9    1
    14     8    35    1
    15     8    36    1
    16     9    10    2
    17    10    11    1
    18    11    12   am
    19    11    37    1
    20    12    13    2
    21    12    14    1
    22    14    15   ar
    23    15    16   ar
    24    15    38    1
    25    16    17   ar
    26    16    39    1
    27    17    18   ar
    28    17    40    1
    29    18    19   ar
    30    18    41    1
    31    19     9    1
    32    19    14   ar
    33    20     3   ar
    34    20    42    1
    35    21    22    1
    36    22    23    1
    37    22    43    1
    38    22    44    1
    39    23    24    1
    40    23    45    1
    41    23    46    1
    42    24    25    1
    43    24    30    1
    44    24    47    1
    45    25    26    1
    46    26    27    1
    47    26    48    1
    48    27    28    1
    49    27    49    1
    50    27    50    1
    51    28    29    1
    52    28    51    1
    53    28    52    1
    54    29    26    1
    55    29    53    1
    56    29    54    1
    57    30    31    1
    58    30    55    1
    59    30    56    1
    60    31    21    1
    61    31    57    1
    62    31    58    1
@<TRIPOS>MOLECULE
*****
 58 62 0 0 0
SMALL
GASTEIGER

@<TRIPOS>ATOM
      1 O          -0.0342   -1.0722   -1.9409 O.2     1  UNL11      -0.2700
      2 C           0.4228    0.0376   -1.4084 C.2     1  UNL11       0.2466
      3 C          -0.5906    0.9631   -0.9780 C.ar    1  UNL11       0.0372
      4 C          -1.8390    1.1349   -1.4996 C.ar    1  UNL11      -0.0496
      5 C          -2.7572    2.0560   -1.0144 C.ar    1  UNL11      -0.0608
      6 C          -2.3928    2.8414    0.0511 C.ar    1  UNL11      -0.0582
      7 C          -1.1610    2.7158    0.6140 C.ar    1  UNL11      -0.0407
      8 C          -0.7507    3.5667    1.7775 C.3     1  UNL11       0.0211
      9 C           0.2066    2.7872    2.6013 C.2     1  UNL11       0.1192
     10 N          -0.1730    1.9959    3.6144 N.2     1  UNL11      -0.0073
     11 N           0.6952    1.3155    4.3297 N.am    1  UNL11      -0.0356
     12 C           1.9918    1.4099    4.0453 C.2     1  UNL11       0.4383
     13 O           2.8094    0.7613    4.7282 O.2     1  UNL11      -0.2116
     14 C           2.4537    2.1958    3.0281 C.ar    1  UNL11       0.1004
     15 C           3.8034    2.2932    2.7334 C.ar    1  UNL11      -0.0441
     16 C           4.2085    3.1012    1.6966 C.ar    1  UNL11      -0.0608
     17 C           3.2995    3.8212    0.9384 C.ar    1  UNL11      -0.0611
     18 C           1.9690    3.7112    1.2459 C.ar    1  UNL11      -0.0518
     19 C           1.5509    2.9119    2.2739 C.ar    1  UNL11       0.0192
     20 C          -0.2806    1.7981    0.1109 C.ar    1  UNL11      -0.0461
     21 N           1.8175    0.0996   -1.3656 N.am    1  UNL11      -0.2974
     22 C           2.5858   -1.0770   -1.9182 C.3     1  UNL11       0.0173
     23 C           3.4808   -1.4751   -0.7607 C.3     1  UNL11      -0.0107
     24 C           4.5346   -0.4054   -0.6438 C.3     1  UNL11       0.0619
     25 O           5.1323   -0.3805    0.6107 O.3     1  UNL11      -0.3732
     26 C           6.0947    0.6109    0.7370 C.3     1  UNL11       0.0591
     27 C           5.6277    2.0225    0.5545 C.3     1  UNL11      -0.0265
     28 C           6.7936    2.2490   -0.4171 C.3     1  UNL11      -0.0484
     29 C           6.8154    0.7472   -0.6130 C.3     1  UNL11      -0.0265
     30 C           4.0802    0.9572   -0.9918 C.3     1  UNL11      -0.0107
     31 C           2.5783    1.1725   -0.8509 C.3     1  UNL11       0.0173
     32 H          -2.1659    0.5575   -2.3196 H       1  UNL11       0.0625
     33 H          -3.7238    2.1366   -1.4755 H       1  UNL11       0.0618
     34 H          -3.0981    3.5591    0.4348 H       1  UNL11       0.0620
     35 H          -0.2768    4.5085    1.4197 H       1  UNL11       0.0379
     36 H          -1.6364    3.8280    2.3987 H       1  UNL11       0.0379
     37 H           0.3334    0.7195    5.1029 H       1  UNL11       0.4829
     38 H           4.4826    1.7223    3.3405 H       1  UNL11       0.0627
     39 H           5.2525    3.1643    1.4833 H       1  UNL11       0.0618
     40 H           3.6141    4.4531    0.1280 H       1  UNL11       0.0618
     41 H           1.2070    4.2525    0.6858 H       1  UNL11       0.0624
     42 H           0.6960    1.7236    0.5846 H       1  UNL11       0.0628
     43 H           3.1701   -0.6336   -2.7462 H       1  UNL11       0.0465
     44 H           1.8846   -1.8530   -2.2063 H       1  UNL11       0.0465
     45 H           2.8315   -1.5234    0.1377 H       1  UNL11       0.0305
     46 H           3.9711   -2.4350   -0.9855 H       1  UNL11       0.0305
     47 H           5.3567   -0.6989   -1.3626 H       1  UNL11       0.0597
     48 H           6.8573    0.4547    1.5125 H       1  UNL11       0.0596
     49 H           4.6841    2.1231    0.0169 H       1  UNL11       0.0290
     50 H           5.7773    2.7089    1.4206 H       1  UNL11       0.0290
     51 H           7.7169    2.5872    0.0764 H       1  UNL11       0.0267
     52 H           6.5066    2.8345   -1.3033 H       1  UNL11       0.0267
     53 H           6.1642    0.4902   -1.4850 H       1  UNL11       0.0290
     54 H           7.8033    0.2779   -0.6356 H       1  UNL11       0.0290
     55 H           4.5834    1.7028   -0.3440 H       1  UNL11       0.0305
     56 H           4.3614    1.2019   -2.0366 H       1  UNL11       0.0305
     57 H           2.3489    2.0963   -1.4032 H       1  UNL11       0.0465
     58 H           2.3627    1.3157    0.2187 H       1  UNL11       0.0465
@<TRIPOS>BOND
     1     1     2    2
     2     2     3    1
     3     2    21   am
     4     3     4   ar
     5     4     5   ar
     6     4    32    1
     7     5     6   ar
     8     5    33    1
     9     6     7   ar
    10     6    34    1
    11     7     8    1
    12     7    20   ar
    13     8     9    1
    14     8    35    1
    15     8    36    1
    16     9    10    2
    17    10    11    1
    18    11    12   am
    19    11    37    1
    20    12    13    2
    21    12    14    1
    22    14    15   ar
    23    15    16   ar
    24    15    38    1
    25    16    17   ar
    26    16    39    1
    27    17    18   ar
    28    17    40    1
    29    18    19   ar
    30    18    41    1
    31    19     9    1
    32    19    14   ar
    33    20     3   ar
    34    20    42    1
    35    21    22    1
    36    22    23    1
    37    22    43    1
    38    22    44    1
    39    23    24    1
    40    23    45    1
    41    23    46    1
    42    24    25    1
    43    24    30    1
    44    24    47    1
    45    25    26    1
    46    26    27    1
    47    26    48    1
    48    27    28    1
    49    27    49    1
    50    27    50    1
    51    28    29    1
    52    28    51    1
    53    28    52    1
    54    29    26    1
    55    29    53    1
    56    29    54    1
    57    30    31    1
    58    30    55    1
    59    30    56    1
    60    31    21    1
    61    31    57    1
    62    31    58    1
@<TRIPOS>MOLECULE
*****
 58 62 0 0 0
SMALL
GASTEIGER

@<TRIPOS>ATOM
      1 O          -0.0342   -1.0722   -1.9409 O.2     1  UNL11      -0.2700
      2 C           0.4228    0.0376   -1.4084 C.2     1  UNL11       0.2466
      3 C          -0.5906    0.9631   -0.9780 C.ar    1  UNL11       0.0372
      4 C          -1.8390    1.1349   -1.4996 C.ar    1  UNL11      -0.0496
      5 C          -2.7572    2.0560   -1.0144 C.ar    1  UNL11      -0.0608
      6 C          -2.3928    2.8414    0.0511 C.ar    1  UNL11      -0.0582
      7 C          -1.1610    2.7158    0.6140 C.ar    1  UNL11      -0.0407
      8 C          -0.7507    3.5667    1.7775 C.3     1  UNL11       0.0211
      9 C           0.4427    4.3514    1.3741 C.2     1  UNL11       0.1192
     10 N           1.0025    4.2620    0.1595 N.2     1  UNL11      -0.0073
     11 N           2.0603    4.9681   -0.1735 N.am    1  UNL11      -0.0356
     12 C           2.5971    5.7990    0.7167 C.2     1  UNL11       0.4383
     13 O           3.6003    6.4657    0.3935 O.2     1  UNL11      -0.2116
     14 C           2.0820    5.9435    1.9736 C.ar    1  UNL11       0.1004
     15 C           2.6417    6.8084    2.8990 C.ar    1  UNL11      -0.0441
     16 C           2.0785    6.9112    4.1497 C.ar    1  UNL11      -0.0608
     17 C           0.9638    6.1704    4.5078 C.ar    1  UNL11      -0.0611
     18 C           0.4251    5.3205    3.5780 C.ar    1  UNL11      -0.0518
     19 C           0.9740    5.2075    2.3305 C.ar    1  UNL11       0.0192
     20 C          -0.2806    1.7981    0.1109 C.ar    1  UNL11      -0.0461
     21 N           1.8175    0.0996   -1.3656 N.am    1  UNL11      -0.2974
     22 C           2.4431    1.3310   -0.7554 C.3     1  UNL11       0.0173
     23 C           3.3676    1.8239   -1.8515 C.3     1  UNL11      -0.0107
     24 C           4.5176    0.8532   -1.9134 C.3     1  UNL11       0.0619
     25 O           5.1902    0.9001   -3.1287 O.3     1  UNL11      -0.3732
     26 C           4.3756    0.6127   -4.2145 C.3     1  UNL11       0.0591
     27 C           3.2095    1.5266   -4.4354 C.3     1  UNL11      -0.0265
     28 C           2.3060    0.2924   -4.5581 C.3     1  UNL11      -0.0484
     29 C           3.3651   -0.4595   -3.7788 C.3     1  UNL11      -0.0265
     30 C           4.1660   -0.5492   -1.6072 C.3     1  UNL11      -0.0107
     31 C           2.7006   -0.8941   -1.8426 C.3     1  UNL11       0.0173
     32 H          -2.1659    0.5575   -2.3196 H       1  UNL11       0.0625
     33 H          -3.7238    2.1366   -1.4755 H       1  UNL11       0.0618
     34 H          -3.0981    3.5591    0.4348 H       1  UNL11       0.0620
     35 H          -1.5814    4.2476    2.0706 H       1  UNL11       0.0379
     36 H          -0.4885    2.9292    2.6512 H       1  UNL11       0.0379
     37 H           2.4456    4.8510   -1.1335 H       1  UNL11       0.4829
     38 H           3.5059    7.3684    2.5901 H       1  UNL11       0.0627
     39 H           2.5227    7.5829    4.8503 H       1  UNL11       0.0618
     40 H           0.5223    6.2492    5.4845 H       1  UNL11       0.0618
     41 H          -0.4511    4.7122    3.8006 H       1  UNL11       0.0624
     42 H           0.6960    1.7236    0.5846 H       1  UNL11       0.0628
     43 H           3.0132    0.9285    0.1029 H       1  UNL11       0.0465
     44 H           1.6594    2.0376   -0.5037 H       1  UNL11       0.0465
     45 H           2.7723    1.8282   -2.7878 H       1  UNL11       0.0305
     46 H           3.7560    2.8199   -1.5877 H       1  UNL11       0.0305
     47 H           5.2652    1.2073   -1.1424 H       1  UNL11       0.0597
     48 H           4.8805    0.2520   -5.1213 H       1  UNL11       0.0596
     49 H           2.9138    2.1058   -3.5598 H       1  UNL11       0.0290
     50 H           3.1783    2.0612   -5.4136 H       1  UNL11       0.0290
     51 H           2.2324   -0.0975   -5.5842 H       1  UNL11       0.0267
     52 H           1.3411    0.4136   -4.0434 H       1  UNL11       0.0267
     53 H           3.1134   -0.4076   -2.6905 H       1  UNL11       0.0290
     54 H           3.6054   -1.4646   -4.1375 H       1  UNL11       0.0290
     55 H           4.7720   -1.2377   -2.2298 H       1  UNL11       0.0305
     56 H           4.4040   -0.7838   -0.5494 H       1  UNL11       0.0305
     57 H           2.5212   -1.8428   -1.3144 H       1  UNL11       0.0465
     58 H           2.5638   -1.0397   -2.9248 H       1  UNL11       0.0465
@<TRIPOS>BOND
     1     1     2    2
     2     2     3    1
     3     2    21   am
     4     3     4   ar
     5     4     5   ar
     6     4    32    1
     7     5     6   ar
     8     5    33    1
     9     6     7   ar
    10     6    34    1
    11     7     8    1
    12     7    20   ar
    13     8     9    1
    14     8    35    1
    15     8    36    1
    16     9    10    2
    17    10    11    1
    18    11    12   am
    19    11    37    1
    20    12    13    2
    21    12    14    1
    22    14    15   ar
    23    15    16   ar
    24    15    38    1
    25    16    17   ar
    26    16    39    1
    27    17    18   ar
    28    17    40    1
    29    18    19   ar
    30    18    41    1
    31    19     9    1
    32    19    14   ar
    33    20     3   ar
    34    20    42    1
    35    21    22    1
    36    22    23    1
    37    22    43    1
    38    22    44    1
    39    23    24    1
    40    23    45    1
    41    23    46    1
    42    24    25    1
    43    24    30    1
    44    24    47    1
    45    25    26    1
    46    26    27    1
    47    26    48    1
    48    27    28    1
    49    27    49    1
    50    27    50    1
    51    28    29    1
    52    28    51    1
    53    28    52    1
    54    29    26    1
    55    29    53    1
    56    29    54    1
    57    30    31    1
    58    30    55    1
    59    30    56    1
    60    31    21    1
    61    31    57    1
    62    31    58    1
@<TRIPOS>MOLECULE
*****
 58 62 0 0 0
SMALL
GASTEIGER

@<TRIPOS>ATOM
      1 O          -0.0342   -1.0722   -1.9409 O.2     1  UNL11      -0.2700
      2 C           0.4228    0.0376   -1.4084 C.2     1  UNL11       0.2466
      3 C          -0.5906    0.9631   -0.9780 C.ar    1  UNL11       0.0372
      4 C          -1.8390    1.1349   -1.4996 C.ar    1  UNL11      -0.0496
      5 C          -2.7572    2.0560   -1.0144 C.ar    1  UNL11      -0.0608
      6 C          -2.3928    2.8414    0.0511 C.ar    1  UNL11      -0.0582
      7 C          -1.1610    2.7158    0.6140 C.ar    1  UNL11      -0.0407
      8 C          -0.7507    3.5667    1.7775 C.3     1  UNL11       0.0211
      9 C           0.4427    4.3514    1.3741 C.2     1  UNL11       0.1192
     10 N           1.0025    4.2620    0.1595 N.2     1  UNL11      -0.0073
     11 N           2.0603    4.9681   -0.1735 N.am    1  UNL11      -0.0356
     12 C           2.5971    5.7990    0.7167 C.2     1  UNL11       0.4383
     13 O           3.6003    6.4657    0.3935 O.2     1  UNL11      -0.2116
     14 C           2.0820    5.9435    1.9736 C.ar    1  UNL11       0.1004
     15 C           2.6417    6.8084    2.8990 C.ar    1  UNL11      -0.0441
     16 C           2.0785    6.9112    4.1497 C.ar    1  UNL11      -0.0608
     17 C           0.9638    6.1704    4.5078 C.ar    1  UNL11      -0.0611
     18 C           0.4251    5.3205    3.5780 C.ar    1  UNL11      -0.0518
     19 C           0.9740    5.2075    2.3305 C.ar    1  UNL11       0.0192
     20 C          -0.2806    1.7981    0.1109 C.ar    1  UNL11      -0.0461
     21 N           1.8175    0.0996   -1.3656 N.am    1  UNL11      -0.2974
     22 C           2.5858   -1.0770   -1.9182 C.3     1  UNL11       0.0173
     23 C           3.4808   -1.4751   -0.7607 C.3     1  UNL11      -0.0107
     24 C           4.5346   -0.4054   -0.6438 C.3     1  UNL11       0.0619
     25 O           5.1323   -0.3805    0.6107 O.3     1  UNL11      -0.3732
     26 C           6.0947    0.6109    0.7370 C.3     1  UNL11       0.0591
     27 C           5.6277    2.0225    0.5545 C.3     1  UNL11      -0.0265
     28 C           6.7936    2.2490   -0.4171 C.3     1  UNL11      -0.0484
     29 C           6.8154    0.7472   -0.6130 C.3     1  UNL11      -0.0265
     30 C           4.0802    0.9572   -0.9918 C.3     1  UNL11      -0.0107
     31 C           2.5783    1.1725   -0.8509 C.3     1  UNL11       0.0173
     32 H          -2.1659    0.5575   -2.3196 H       1  UNL11       0.0625
     33 H          -3.7238    2.1366   -1.4755 H       1  UNL11       0.0618
     34 H          -3.0981    3.5591    0.4348 H       1  UNL11       0.0620
     35 H          -1.5814    4.2476    2.0706 H       1  UNL11       0.0379
     36 H          -0.4885    2.9292    2.6512 H       1  UNL11       0.0379
     37 H           2.4456    4.8510   -1.1335 H       1  UNL11       0.4829
     38 H           3.5059    7.3684    2.5901 H       1  UNL11       0.0627
     39 H           2.5227    7.5829    4.8503 H       1  UNL11       0.0618
     40 H           0.5223    6.2492    5.4845 H       1  UNL11       0.0618
     41 H          -0.4511    4.7122    3.8006 H       1  UNL11       0.0624
     42 H           0.6960    1.7236    0.5846 H       1  UNL11       0.0628
     43 H           3.1701   -0.6336   -2.7462 H       1  UNL11       0.0465
     44 H           1.8846   -1.8530   -2.2063 H       1  UNL11       0.0465
     45 H           2.8315   -1.5234    0.1377 H       1  UNL11       0.0305
     46 H           3.9711   -2.4350   -0.9855 H       1  UNL11       0.0305
     47 H           5.3567   -0.6989   -1.3626 H       1  UNL11       0.0597
     48 H           6.8573    0.4547    1.5125 H       1  UNL11       0.0596
     49 H           4.6841    2.1231    0.0169 H       1  UNL11       0.0290
     50 H           5.7773    2.7089    1.4206 H       1  UNL11       0.0290
     51 H           7.7169    2.5872    0.0764 H       1  UNL11       0.0267
     52 H           6.5066    2.8345   -1.3033 H       1  UNL11       0.0267
     53 H           6.1642    0.4902   -1.4850 H       1  UNL11       0.0290
     54 H           7.8033    0.2779   -0.6356 H       1  UNL11       0.0290
     55 H           4.5834    1.7028   -0.3440 H       1  UNL11       0.0305
     56 H           4.3614    1.2019   -2.0366 H       1  UNL11       0.0305
     57 H           2.3489    2.0963   -1.4032 H       1  UNL11       0.0465
     58 H           2.3627    1.3157    0.2187 H       1  UNL11       0.0465
@<TRIPOS>BOND
     1     1     2    2
     2     2     3    1
     3     2    21   am
     4     3     4   ar
     5     4     5   ar
     6     4    32    1
     7     5     6   ar
     8     5    33    1
     9     6     7   ar
    10     6    34    1
    11     7     8    1
    12     7    20   ar
    13     8     9    1
    14     8    35    1
    15     8    36    1
    16     9    10    2
    17    10    11    1
    18    11    12   am
    19    11    37    1
    20    12    13    2
    21    12    14    1
    22    14    15   ar
    23    15    16   ar
    24    15    38    1
    25    16    17   ar
    26    16    39    1
    27    17    18   ar
    28    17    40    1
    29    18    19   ar
    30    18    41    1
    31    19     9    1
    32    19    14   ar
    33    20     3   ar
    34    20    42    1
    35    21    22    1
    36    22    23    1
    37    22    43    1
    38    22    44    1
    39    23    24    1
    40    23    45    1
    41    23    46    1
    42    24    25    1
    43    24    30    1
    44    24    47    1
    45    25    26    1
    46    26    27    1
    47    26    48    1
    48    27    28    1
    49    27    49    1
    50    27    50    1
    51    28    29    1
    52    28    51    1
    53    28    52    1
    54    29    26    1
    55    29    53    1
    56    29    54    1
    57    30    31    1
    58    30    55    1
    59    30    56    1
    60    31    21    1
    61    31    57    1
    62    31    58    1
@<TRIPOS>MOLECULE
*****
 58 62 0 0 0
SMALL
GASTEIGER

@<TRIPOS>ATOM
      1 O          -0.0342   -1.0722   -1.9409 O.2     1  UNL11      -0.2700
      2 C           0.4228    0.0376   -1.4084 C.2     1  UNL11       0.2466
      3 C          -0.5906    0.9631   -0.9780 C.ar    1  UNL11       0.0372
      4 C          -1.8390    1.1349   -1.4996 C.ar    1  UNL11      -0.0496
      5 C          -2.7572    2.0560   -1.0144 C.ar    1  UNL11      -0.0608
      6 C          -2.3928    2.8414    0.0511 C.ar    1  UNL11      -0.0582
      7 C          -1.1610    2.7158    0.6140 C.ar    1  UNL11      -0.0407
      8 C          -0.7507    3.5667    1.7775 C.3     1  UNL11       0.0211
      9 C          -0.8336    4.9881    1.3586 C.2     1  UNL11       0.1192
     10 N          -1.9728    5.5682    0.9556 N.2     1  UNL11      -0.0073
     11 N          -2.0200    6.8298    0.5890 N.am    1  UNL11      -0.0356
     12 C          -0.9075    7.5595    0.6162 C.2     1  UNL11       0.4383
     13 O          -0.9602    8.7557    0.2672 O.2     1  UNL11      -0.2116
     14 C           0.2901    7.0376    1.0151 C.ar    1  UNL11       0.1004
     15 C           1.4471    7.7981    1.0429 C.ar    1  UNL11      -0.0441
     16 C           2.6240    7.2169    1.4542 C.ar    1  UNL11      -0.0608
     17 C           2.6815    5.8880    1.8420 C.ar    1  UNL11      -0.0611
     18 C           1.5260    5.1528    1.8075 C.ar    1  UNL11      -0.0518
     19 C           0.3484    5.7168    1.4008 C.ar    1  UNL11       0.0192
     20 C          -0.2806    1.7981    0.1109 C.ar    1  UNL11      -0.0461
     21 N           1.8175    0.0996   -1.3656 N.am    1  UNL11      -0.2974
     22 C           2.5858   -1.0770   -1.9182 C.3     1  UNL11       0.0173
     23 C           3.4808   -1.4751   -0.7607 C.3     1  UNL11      -0.0107
     24 C           4.5346   -0.4054   -0.6438 C.3     1  UNL11       0.0619
     25 O           5.1323   -0.3805    0.6107 O.3     1  UNL11      -0.3732
     26 C           6.0947    0.6109    0.7370 C.3     1  UNL11       0.0591
     27 C           5.6277    2.0225    0.5545 C.3     1  UNL11      -0.0265
     28 C           6.7936    2.2490   -0.4171 C.3     1  UNL11      -0.0484
     29 C           6.8154    0.7472   -0.6130 C.3     1  UNL11      -0.0265
     30 C           4.0802    0.9572   -0.9918 C.3     1  UNL11      -0.0107
     31 C           2.5783    1.1725   -0.8509 C.3     1  UNL11       0.0173
     32 H          -2.1659    0.5575   -2.3196 H       1  UNL11       0.0625
     33 H          -3.7238    2.1366   -1.4755 H       1  UNL11       0.0618
     34 H          -3.0981    3.5591    0.4348 H       1  UNL11       0.0620
     35 H          -1.4190    3.3796    2.6481 H       1  UNL11       0.0379
     36 H           0.2961    3.3362    2.0769 H       1  UNL11       0.0379
     37 H          -2.9373    7.2185    0.2865 H       1  UNL11       0.4829
     38 H           1.3688    8.8254    0.7357 H       1  UNL11       0.0627
     39 H           3.5061    7.8179    1.4697 H       1  UNL11       0.0618
     40 H           3.6001    5.4321    2.1636 H       1  UNL11       0.0618
     41 H           1.5081    4.1035    2.1006 H       1  UNL11       0.0624
     42 H           0.6960    1.7236    0.5846 H       1  UNL11       0.0628
     43 H           3.1701   -0.6336   -2.7462 H       1  UNL11       0.0465
     44 H           1.8846   -1.8530   -2.2063 H       1  UNL11       0.0465
     45 H           2.8315   -1.5234    0.1377 H       1  UNL11       0.0305
     46 H           3.9711   -2.4350   -0.9855 H       1  UNL11       0.0305
     47 H           5.3567   -0.6989   -1.3626 H       1  UNL11       0.0597
     48 H           6.8573    0.4547    1.5125 H       1  UNL11       0.0596
     49 H           4.6841    2.1231    0.0169 H       1  UNL11       0.0290
     50 H           5.7773    2.7089    1.4206 H       1  UNL11       0.0290
     51 H           7.7169    2.5872    0.0764 H       1  UNL11       0.0267
     52 H           6.5066    2.8345   -1.3033 H       1  UNL11       0.0267
     53 H           6.1642    0.4902   -1.4850 H       1  UNL11       0.0290
     54 H           7.8033    0.2779   -0.6356 H       1  UNL11       0.0290
     55 H           4.5834    1.7028   -0.3440 H       1  UNL11       0.0305
     56 H           4.3614    1.2019   -2.0366 H       1  UNL11       0.0305
     57 H           2.3489    2.0963   -1.4032 H       1  UNL11       0.0465
     58 H           2.3627    1.3157    0.2187 H       1  UNL11       0.0465
@<TRIPOS>BOND
     1     1     2    2
     2     2     3    1
     3     2    21   am
     4     3     4   ar
     5     4     5   ar
     6     4    32    1
     7     5     6   ar
     8     5    33    1
     9     6     7   ar
    10     6    34    1
    11     7     8    1
    12     7    20   ar
    13     8     9    1
    14     8    35    1
    15     8    36    1
    16     9    10    2
    17    10    11    1
    18    11    12   am
    19    11    37    1
    20    12    13    2
    21    12    14    1
    22    14    15   ar
    23    15    16   ar
    24    15    38    1
    25    16    17   ar
    26    16    39    1
    27    17    18   ar
    28    17    40    1
    29    18    19   ar
    30    18    41    1
    31    19     9    1
    32    19    14   ar
    33    20     3   ar
    34    20    42    1
    35    21    22    1
    36    22    23    1
    37    22    43    1
    38    22    44    1
    39    23    24    1
    40    23    45    1
    41    23    46    1
    42    24    25    1
    43    24    30    1
    44    24    47    1
    45    25    26    1
    46    26    27    1
    47    26    48    1
    48    27    28    1
    49    27    49    1
    50    27    50    1
    51    28    29    1
    52    28    51    1
    53    28    52    1
    54    29    26    1
    55    29    53    1
    56    29    54    1
    57    30    31    1
    58    30    55    1
    59    30    56    1
    60    31    21    1
    61    31    57    1
    62    31    58    1
@<TRIPOS>MOLECULE
*****
 58 62 0 0 0
SMALL
GASTEIGER

@<TRIPOS>ATOM
      1 O          -0.0342   -1.0722   -1.9409 O.2     1  UNL11      -0.2700
      2 C           0.4228    0.0376   -1.4084 C.2     1  UNL11       0.2466
      3 C          -0.5906    0.9631   -0.9780 C.ar    1  UNL11       0.0372
      4 C          -1.8390    1.1349   -1.4996 C.ar    1  UNL11      -0.0496
      5 C          -2.7572    2.0560   -1.0144 C.ar    1  UNL11      -0.0608
      6 C          -2.3928    2.8414    0.0511 C.ar    1  UNL11      -0.0582
      7 C          -1.1610    2.7158    0.6140 C.ar    1  UNL11      -0.0407
      8 C          -0.7507    3.5667    1.7775 C.3     1  UNL11       0.0211
      9 C          -1.6823    3.2905    2.8994 C.2     1  UNL11       0.1192
     10 N          -1.2801    2.8135    4.0857 N.2     1  UNL11      -0.0073
     11 N          -2.1257    2.5768    5.0640 N.am    1  UNL11      -0.0356
     12 C          -3.4217    2.8154    4.8787 C.2     1  UNL11       0.4383
     13 O          -4.2178    2.5886    5.8115 O.2     1  UNL11      -0.2116
     14 C          -3.9059    3.3015    3.6975 C.ar    1  UNL11       0.1004
     15 C          -5.2548    3.5493    3.5059 C.ar    1  UNL11      -0.0441
     16 C          -5.6830    4.0389    2.2939 C.ar    1  UNL11      -0.0608
     17 C          -4.7978    4.2909    1.2583 C.ar    1  UNL11      -0.0611
     18 C          -3.4675    4.0392    1.4679 C.ar    1  UNL11      -0.0518
     19 C          -3.0268    3.5523    2.6674 C.ar    1  UNL11       0.0192
     20 C          -0.2806    1.7981    0.1109 C.ar    1  UNL11      -0.0461
     21 N           1.8175    0.0996   -1.3656 N.am    1  UNL11      -0.2974
     22 C           2.5858   -1.0770   -1.9182 C.3     1  UNL11       0.0173
     23 C           3.4808   -1.4751   -0.7607 C.3     1  UNL11      -0.0107
     24 C           4.5346   -0.4054   -0.6438 C.3     1  UNL11       0.0619
     25 O           5.1323   -0.3805    0.6107 O.3     1  UNL11      -0.3732
     26 C           6.0947    0.6109    0.7370 C.3     1  UNL11       0.0591
     27 C           5.6277    2.0225    0.5545 C.3     1  UNL11      -0.0265
     28 C           6.7936    2.2490   -0.4171 C.3     1  UNL11      -0.0484
     29 C           6.8154    0.7472   -0.6130 C.3     1  UNL11      -0.0265
     30 C           4.0802    0.9572   -0.9918 C.3     1  UNL11      -0.0107
     31 C           2.5783    1.1725   -0.8509 C.3     1  UNL11       0.0173
     32 H          -2.1659    0.5575   -2.3196 H       1  UNL11       0.0625
     33 H          -3.7238    2.1366   -1.4755 H       1  UNL11       0.0618
     34 H          -3.0981    3.5591    0.4348 H       1  UNL11       0.0620
     35 H           0.2961    3.3338    2.0767 H       1  UNL11       0.0379
     36 H          -0.8125    4.6453    1.5105 H       1  UNL11       0.0379
     37 H          -1.7472    2.2063    5.9604 H       1  UNL11       0.4829
     38 H          -5.9153    3.3431    4.3288 H       1  UNL11       0.0627
     39 H          -6.7261    4.2243    2.1637 H       1  UNL11       0.0618
     40 H          -5.1303    4.6734    0.3105 H       1  UNL11       0.0618
     41 H          -2.7236    4.2175    0.6919 H       1  UNL11       0.0624
     42 H           0.6960    1.7236    0.5846 H       1  UNL11       0.0628
     43 H           3.1701   -0.6336   -2.7462 H       1  UNL11       0.0465
     44 H           1.8846   -1.8530   -2.2063 H       1  UNL11       0.0465
     45 H           2.8315   -1.5234    0.1377 H       1  UNL11       0.0305
     46 H           3.9711   -2.4350   -0.9855 H       1  UNL11       0.0305
     47 H           5.3567   -0.6989   -1.3626 H       1  UNL11       0.0597
     48 H           6.8573    0.4547    1.5125 H       1  UNL11       0.0596
     49 H           4.6841    2.1231    0.0169 H       1  UNL11       0.0290
     50 H           5.7773    2.7089    1.4206 H       1  UNL11       0.0290
     51 H           7.7169    2.5872    0.0764 H       1  UNL11       0.0267
     52 H           6.5066    2.8345   -1.3033 H       1  UNL11       0.0267
     53 H           6.1642    0.4902   -1.4850 H       1  UNL11       0.0290
     54 H           7.8033    0.2779   -0.6356 H       1  UNL11       0.0290
     55 H           4.5834    1.7028   -0.3440 H       1  UNL11       0.0305
     56 H           4.3614    1.2019   -2.0366 H       1  UNL11       0.0305
     57 H           2.3489    2.0963   -1.4032 H       1  UNL11       0.0465
     58 H           2.3627    1.3157    0.2187 H       1  UNL11       0.0465
@<TRIPOS>BOND
     1     1     2    2
     2     2     3    1
     3     2    21   am
     4     3     4   ar
     5     4     5   ar
     6     4    32    1
     7     5     6   ar
     8     5    33    1
     9     6     7   ar
    10     6    34    1
    11     7     8    1
    12     7    20   ar
    13     8     9    1
    14     8    35    1
    15     8    36    1
    16     9    10    2
    17    10    11    1
    18    11    12   am
    19    11    37    1
    20    12    13    2
    21    12    14    1
    22    14    15   ar
    23    15    16   ar
    24    15    38    1
    25    16    17   ar
    26    16    39    1
    27    17    18   ar
    28    17    40    1
    29    18    19   ar
    30    18    41    1
    31    19     9    1
    32    19    14   ar
    33    20     3   ar
    34    20    42    1
    35    21    22    1
    36    22    23    1
    37    22    43    1
    38    22    44    1
    39    23    24    1
    40    23    45    1
    41    23    46    1
    42    24    25    1
    43    24    30    1
    44    24    47    1
    45    25    26    1
    46    26    27    1
    47    26    48    1
    48    27    28    1
    49    27    49    1
    50    27    50    1
    51    28    29    1
    52    28    51    1
    53    28    52    1
    54    29    26    1
    55    29    53    1
    56    29    54    1
    57    30    31    1
    58    30    55    1
    59    30    56    1
    60    31    21    1
    61    31    57    1
    62    31    58    1
@<TRIPOS>MOLECULE
*****
 58 62 0 0 0
SMALL
GASTEIGER

@<TRIPOS>ATOM
      1 O          -0.0342   -1.0722   -1.9409 O.2     1  UNL11      -0.2700
      2 C           0.4228    0.0376   -1.4084 C.2     1  UNL11       0.2466
      3 C          -0.5906    0.9631   -0.9780 C.ar    1  UNL11       0.0372
      4 C          -1.8484    0.6763   -0.5357 C.ar    1  UNL11      -0.0496
      5 C          -2.7633    1.6404   -0.1351 C.ar    1  UNL11      -0.0608
      6 C          -2.3855    2.9593   -0.1853 C.ar    1  UNL11      -0.0582
      7 C          -1.1437    3.3074   -0.6175 C.ar    1  UNL11      -0.0407
      8 C          -0.7186    4.7434   -0.6770 C.3     1  UNL11       0.0211
      9 C          -0.3768    5.0629   -2.0855 C.2     1  UNL11       0.1192
     10 N          -0.5288    6.2837   -2.6178 N.2     1  UNL11      -0.0073
     11 N          -0.2188    6.5413   -3.8691 N.am    1  UNL11      -0.0356
     12 C           0.2610    5.5659   -4.6368 C.2     1  UNL11       0.4383
     13 O           0.5531    5.8180   -5.8228 O.2     1  UNL11      -0.2116
     14 C           0.4433    4.2972   -4.1645 C.ar    1  UNL11       0.1004
     15 C           0.9426    3.2831   -4.9646 C.ar    1  UNL11      -0.0441
     16 C           1.1042    2.0249   -4.4327 C.ar    1  UNL11      -0.0608
     17 C           0.7798    1.7459   -3.1149 C.ar    1  UNL11      -0.0611
     18 C           0.2874    2.7628   -2.3400 C.ar    1  UNL11      -0.0518
     19 C           0.1210    4.0188   -2.8548 C.ar    1  UNL11       0.0192
     20 C          -0.2670    2.3319   -1.0049 C.ar    1  UNL11      -0.0461
     21 N           1.8175    0.0996   -1.3656 N.am    1  UNL11      -0.2974
     22 C           2.4431    1.3310   -0.7554 C.3     1  UNL11       0.0173
     23 C           3.3676    1.8239   -1.8515 C.3     1  UNL11      -0.0107
     24 C           4.5176    0.8532   -1.9134 C.3     1  UNL11       0.0619
     25 O           5.1902    0.9001   -3.1287 O.3     1  UNL11      -0.3732
     26 C           6.2428   -0.0006   -3.2049 C.3     1  UNL11       0.0591
     27 C           5.8932   -1.4504   -3.0651 C.3     1  UNL11      -0.0265
     28 C           7.0135   -1.5877   -2.0256 C.3     1  UNL11      -0.0484
     29 C           6.8897   -0.0929   -1.8144 C.3     1  UNL11      -0.0265
     30 C           4.1660   -0.5492   -1.6072 C.3     1  UNL11      -0.0107
     31 C           2.7006   -0.8941   -1.8426 C.3     1  UNL11       0.0173
     32 H          -2.1872   -0.3211   -0.4803 H       1  UNL11       0.0625
     33 H          -3.7379    1.3409    0.2025 H       1  UNL11       0.0618
     34 H          -3.0882    3.7148    0.1233 H       1  UNL11       0.0620
     35 H          -1.5389    5.4048   -0.3176 H       1  UNL11       0.0379
     36 H           0.1777    4.9095   -0.0385 H       1  UNL11       0.0379
     37 H          -0.3613    7.5112   -4.2199 H       1  UNL11       0.4829
     38 H           1.1843    3.5322   -5.9821 H       1  UNL11       0.0627
     39 H           1.4905    1.2554   -5.0634 H       1  UNL11       0.0618
     40 H           0.9053    0.7635   -2.6974 H       1  UNL11       0.0618
     41 H           0.0147    2.6050   -1.2969 H       1  UNL11       0.0624
     42 H           0.7178    2.6449   -1.3452 H       1  UNL11       0.0628
     43 H           3.0132    0.9285    0.1029 H       1  UNL11       0.0465
     44 H           1.6594    2.0376   -0.5037 H       1  UNL11       0.0465
     45 H           2.7723    1.8282   -2.7878 H       1  UNL11       0.0305
     46 H           3.7560    2.8199   -1.5877 H       1  UNL11       0.0305
     47 H           5.2652    1.2073   -1.1424 H       1  UNL11       0.0597
     48 H           7.0341    0.2341   -3.9303 H       1  UNL11       0.0596
     49 H           4.9314   -1.6420   -2.5878 H       1  UNL11       0.0290
     50 H           6.1555   -2.1078   -3.9269 H       1  UNL11       0.0290
     51 H           7.9915   -1.8356   -2.4644 H       1  UNL11       0.0267
     52 H           6.7266   -2.2095   -1.1645 H       1  UNL11       0.0267
     53 H           6.1665    0.0924   -0.9818 H       1  UNL11       0.0290
     54 H           7.8286    0.4613   -1.7263 H       1  UNL11       0.0290
     55 H           4.7720   -1.2377   -2.2298 H       1  UNL11       0.0305
     56 H           4.4040   -0.7838   -0.5494 H       1  UNL11       0.0305
     57 H           2.5212   -1.8428   -1.3144 H       1  UNL11       0.0465
     58 H           2.5638   -1.0397   -2.9248 H       1  UNL11       0.0465
@<TRIPOS>BOND
     1     1     2    2
     2     2     3    1
     3     2    21   am
     4     3     4   ar
     5     4     5   ar
     6     4    32    1
     7     5     6   ar
     8     5    33    1
     9     6     7   ar
    10     6    34    1
    11     7     8    1
    12     7    20   ar
    13     8     9    1
    14     8    35    1
    15     8    36    1
    16     9    10    2
    17    10    11    1
    18    11    12   am
    19    11    37    1
    20    12    13    2
    21    12    14    1
    22    14    15   ar
    23    15    16   ar
    24    15    38    1
    25    16    17   ar
    26    16    39    1
    27    17    18   ar
    28    17    40    1
    29    18    19   ar
    30    18    41    1
    31    19     9    1
    32    19    14   ar
    33    20     3   ar
    34    20    42    1
    35    21    22    1
    36    22    23    1
    37    22    43    1
    38    22    44    1
    39    23    24    1
    40    23    45    1
    41    23    46    1
    42    24    25    1
    43    24    30    1
    44    24    47    1
    45    25    26    1
    46    26    27    1
    47    26    48    1
    48    27    28    1
    49    27    49    1
    50    27    50    1
    51    28    29    1
    52    28    51    1
    53    28    52    1
    54    29    26    1
    55    29    53    1
    56    29    54    1
    57    30    31    1
    58    30    55    1
    59    30    56    1
    60    31    21    1
    61    31    57    1
    62    31    58    1
@<TRIPOS>MOLECULE
*****
 58 62 0 0 0
SMALL
GASTEIGER

@<TRIPOS>ATOM
      1 O          -0.0342   -1.0722   -1.9409 O.2     1  UNL11      -0.2700
      2 C           0.4228    0.0376   -1.4084 C.2     1  UNL11       0.2466
      3 C          -0.5906    0.9631   -0.9780 C.ar    1  UNL11       0.0372
      4 C          -0.5127    2.3240   -0.9336 C.ar    1  UNL11      -0.0496
      5 C          -1.5488    3.1420   -0.5043 C.ar    1  UNL11      -0.0608
      6 C          -2.7210    2.5524   -0.1001 C.ar    1  UNL11      -0.0582
      7 C          -2.8585    1.1994   -0.1220 C.ar    1  UNL11      -0.0407
      8 C          -4.1326    0.5431    0.3164 C.3     1  UNL11       0.0211
      9 C          -4.0281    0.2630    1.7701 C.2     1  UNL11       0.1192
     10 N          -4.4239    1.1289    2.7137 N.2     1  UNL11      -0.0073
     11 N          -4.3205    0.8570    3.9958 N.am    1  UNL11      -0.0356
     12 C          -3.8085   -0.3110    4.3761 C.2     1  UNL11       0.4383
     13 O          -3.7138   -0.5619    5.5941 O.2     1  UNL11      -0.2116
     14 C          -3.3839   -1.2432    3.4724 C.ar    1  UNL11       0.1004
     15 C          -2.8513   -2.4582    3.8696 C.ar    1  UNL11      -0.0441
     16 C          -2.4407   -3.3572    2.9129 C.ar    1  UNL11      -0.0608
     17 C          -2.5466   -3.0778    1.5600 C.ar    1  UNL11      -0.0611
     18 C          -3.0763   -1.8704    1.1878 C.ar    1  UNL11      -0.0518
     19 C          -3.4887   -0.9663    2.1274 C.ar    1  UNL11       0.0192
     20 C          -1.8174    0.4232   -0.5508 C.ar    1  UNL11      -0.0461
     21 N           1.8175    0.0996   -1.3656 N.am    1  UNL11      -0.2974
     22 C           2.5858   -1.0770   -1.9182 C.3     1  UNL11       0.0173
     23 C           3.4808   -1.4751   -0.7607 C.3     1  UNL11      -0.0107
     24 C           4.5346   -0.4054   -0.6438 C.3     1  UNL11       0.0619
     25 O           5.1323   -0.3805    0.6107 O.3     1  UNL11      -0.3732
     26 C           4.2301   -0.1564    1.6406 C.3     1  UNL11       0.0591
     27 C           3.1378   -1.1684    1.8040 C.3     1  UNL11      -0.0265
     28 C           2.1231   -0.0183    1.8532 C.3     1  UNL11      -0.0484
     29 C           3.1578    0.8174    1.1284 C.3     1  UNL11      -0.0265
     30 C           4.0802    0.9572   -0.9918 C.3     1  UNL11      -0.0107
     31 C           2.5783    1.1725   -0.8509 C.3     1  UNL11       0.0173
     32 H           0.3666    2.8246   -1.2317 H       1  UNL11       0.0625
     33 H          -1.4165    4.2077   -0.4962 H       1  UNL11       0.0618
     34 H          -3.5307    3.1784    0.2348 H       1  UNL11       0.0620
     35 H          -5.0010    1.2091    0.1114 H       1  UNL11       0.0379
     36 H          -4.2830   -0.4153   -0.2289 H       1  UNL11       0.0379
     37 H          -4.6466    1.5737    4.6769 H       1  UNL11       0.4829
     38 H          -2.7826   -2.6441    4.9263 H       1  UNL11       0.0627
     39 H          -2.0328   -4.2889    3.2369 H       1  UNL11       0.0618
     40 H          -2.2263   -3.7788    0.8110 H       1  UNL11       0.0618
     41 H          -3.1852   -1.5936    0.1395 H       1  UNL11       0.0624
     42 H          -1.9608   -0.6553   -0.5557 H       1  UNL11       0.0628
     43 H           3.1701   -0.6336   -2.7462 H       1  UNL11       0.0465
     44 H           1.8846   -1.8530   -2.2063 H       1  UNL11       0.0465
     45 H           2.8315   -1.5234    0.1377 H       1  UNL11       0.0305
     46 H           3.9711   -2.4350   -0.9855 H       1  UNL11       0.0305
     47 H           5.3567   -0.6989   -1.3626 H       1  UNL11       0.0597
     48 H           4.6443    0.2565    2.5708 H       1  UNL11       0.0596
     49 H           2.9490   -1.7800    0.9209 H       1  UNL11       0.0290
     50 H           3.0936   -1.6942    2.7864 H       1  UNL11       0.0290
     51 H           1.9521    0.3732    2.8670 H       1  UNL11       0.0267
     52 H           1.2063   -0.2299    1.2828 H       1  UNL11       0.0267
     53 H           2.9793    0.7328    0.0277 H       1  UNL11       0.0290
     54 H           3.2858    1.8433    1.4858 H       1  UNL11       0.0290
     55 H           4.5834    1.7028   -0.3440 H       1  UNL11       0.0305
     56 H           4.3614    1.2019   -2.0366 H       1  UNL11       0.0305
     57 H           2.3489    2.0963   -1.4032 H       1  UNL11       0.0465
     58 H           2.3627    1.3157    0.2187 H       1  UNL11       0.0465
@<TRIPOS>BOND
     1     1     2    2
     2     2     3    1
     3     2    21   am
     4     3     4   ar
     5     4     5   ar
     6     4    32    1
     7     5     6   ar
     8     5    33    1
     9     6     7   ar
    10     6    34    1
    11     7     8    1
    12     7    20   ar
    13     8     9    1
    14     8    35    1
    15     8    36    1
    16     9    10    2
    17    10    11    1
    18    11    12   am
    19    11    37    1
    20    12    13    2
    21    12    14    1
    22    14    15   ar
    23    15    16   ar
    24    15    38    1
    25    16    17   ar
    26    16    39    1
    27    17    18   ar
    28    17    40    1
    29    18    19   ar
    30    18    41    1
    31    19     9    1
    32    19    14   ar
    33    20     3   ar
    34    20    42    1
    35    21    22    1
    36    22    23    1
    37    22    43    1
    38    22    44    1
    39    23    24    1
    40    23    45    1
    41    23    46    1
    42    24    25    1
    43    24    30    1
    44    24    47    1
    45    25    26    1
    46    26    27    1
    47    26    48    1
    48    27    28    1
    49    27    49    1
    50    27    50    1
    51    28    29    1
    52    28    51    1
    53    28    52    1
    54    29    26    1
    55    29    53    1
    56    29    54    1
    57    30    31    1
    58    30    55    1
    59    30    56    1
    60    31    21    1
    61    31    57    1
    62    31    58    1
@<TRIPOS>MOLECULE
*****
 58 62 0 0 0
SMALL
GASTEIGER

@<TRIPOS>ATOM
      1 O          -0.0342   -1.0722   -1.9409 O.2     1  UNL11      -0.2700
      2 C           0.4228    0.0376   -1.4084 C.2     1  UNL11       0.2466
      3 C          -0.5906    0.9631   -0.9780 C.ar    1  UNL11       0.0372
      4 C          -0.5127    2.3240   -0.9336 C.ar    1  UNL11      -0.0496
      5 C          -1.5488    3.1420   -0.5043 C.ar    1  UNL11      -0.0608
      6 C          -2.7210    2.5524   -0.1001 C.ar    1  UNL11      -0.0582
      7 C          -2.8585    1.1994   -0.1220 C.ar    1  UNL11      -0.0407
      8 C          -4.1326    0.5431    0.3164 C.3     1  UNL11       0.0211
      9 C          -5.2241    1.0241   -0.5666 C.2     1  UNL11       0.1192
     10 N          -5.9613    0.2074   -1.3323 N.2     1  UNL11      -0.0073
     11 N          -6.9231    0.6586   -2.1067 N.am    1  UNL11      -0.0356
     12 C          -7.1786    1.9642   -2.1367 C.2     1  UNL11       0.4383
     13 O          -8.0927    2.3847   -2.8737 O.2     1  UNL11      -0.2116
     14 C          -6.4698    2.8573   -1.3845 C.ar    1  UNL11       0.1004
     15 C          -6.7368    4.2158   -1.4168 C.ar    1  UNL11      -0.0441
     16 C          -5.9889    5.0667   -0.6366 C.ar    1  UNL11      -0.0608
     17 C          -4.9738    4.5986    0.1820 C.ar    1  UNL11      -0.0611
     18 C          -4.7256    3.2514    0.1997 C.ar    1  UNL11      -0.0518
     19 C          -5.4606    2.3931   -0.5706 C.ar    1  UNL11       0.0192
     20 C          -1.8174    0.4232   -0.5508 C.ar    1  UNL11      -0.0461
     21 N           1.8175    0.0996   -1.3656 N.am    1  UNL11      -0.2974
     22 C           2.4431    1.3310   -0.7554 C.3     1  UNL11       0.0173
     23 C           3.3676    1.8239   -1.8515 C.3     1  UNL11      -0.0107
     24 C           4.5176    0.8532   -1.9134 C.3     1  UNL11       0.0619
     25 O           5.1902    0.9001   -3.1287 O.3     1  UNL11      -0.3732
     26 C           6.2428   -0.0006   -3.2049 C.3     1  UNL11       0.0591
     27 C           5.8932   -1.4504   -3.0651 C.3     1  UNL11      -0.0265
     28 C           7.0135   -1.5877   -2.0256 C.3     1  UNL11      -0.0484
     29 C           6.8897   -0.0929   -1.8144 C.3     1  UNL11      -0.0265
     30 C           4.1660   -0.5492   -1.6072 C.3     1  UNL11      -0.0107
     31 C           2.7006   -0.8941   -1.8426 C.3     1  UNL11       0.0173
     32 H           0.3666    2.8246   -1.2317 H       1  UNL11       0.0625
     33 H          -1.4165    4.2077   -0.4962 H       1  UNL11       0.0618
     34 H          -3.5307    3.1784    0.2348 H       1  UNL11       0.0620
     35 H          -4.0398   -0.5644    0.2499 H       1  UNL11       0.0379
     36 H          -4.3684    0.8176    1.3688 H       1  UNL11       0.0379
     37 H          -7.4575   -0.0298   -2.6763 H       1  UNL11       0.4829
     38 H          -7.5304    4.5467   -2.0623 H       1  UNL11       0.0627
     39 H          -6.2085    6.1107   -0.6737 H       1  UNL11       0.0618
     40 H          -4.3883    5.2618    0.7922 H       1  UNL11       0.0618
     41 H          -3.9408    2.8237    0.8230 H       1  UNL11       0.0624
     42 H          -1.9608   -0.6553   -0.5557 H       1  UNL11       0.0628
     43 H           3.0132    0.9285    0.1029 H       1  UNL11       0.0465
     44 H           1.6594    2.0376   -0.5037 H       1  UNL11       0.0465
     45 H           2.7723    1.8282   -2.7878 H       1  UNL11       0.0305
     46 H           3.7560    2.8199   -1.5877 H       1  UNL11       0.0305
     47 H           5.2652    1.2073   -1.1424 H       1  UNL11       0.0597
     48 H           7.0341    0.2341   -3.9303 H       1  UNL11       0.0596
     49 H           4.9314   -1.6420   -2.5878 H       1  UNL11       0.0290
     50 H           6.1555   -2.1078   -3.9269 H       1  UNL11       0.0290
     51 H           7.9915   -1.8356   -2.4644 H       1  UNL11       0.0267
     52 H           6.7266   -2.2095   -1.1645 H       1  UNL11       0.0267
     53 H           6.1665    0.0924   -0.9818 H       1  UNL11       0.0290
     54 H           7.8286    0.4613   -1.7263 H       1  UNL11       0.0290
     55 H           4.7720   -1.2377   -2.2298 H       1  UNL11       0.0305
     56 H           4.4040   -0.7838   -0.5494 H       1  UNL11       0.0305
     57 H           2.5212   -1.8428   -1.3144 H       1  UNL11       0.0465
     58 H           2.5638   -1.0397   -2.9248 H       1  UNL11       0.0465
@<TRIPOS>BOND
     1     1     2    2
     2     2     3    1
     3     2    21   am
     4     3     4   ar
     5     4     5   ar
     6     4    32    1
     7     5     6   ar
     8     5    33    1
     9     6     7   ar
    10     6    34    1
    11     7     8    1
    12     7    20   ar
    13     8     9    1
    14     8    35    1
    15     8    36    1
    16     9    10    2
    17    10    11    1
    18    11    12   am
    19    11    37    1
    20    12    13    2
    21    12    14    1
    22    14    15   ar
    23    15    16   ar
    24    15    38    1
    25    16    17   ar
    26    16    39    1
    27    17    18   ar
    28    17    40    1
    29    18    19   ar
    30    18    41    1
    31    19     9    1
    32    19    14   ar
    33    20     3   ar
    34    20    42    1
    35    21    22    1
    36    22    23    1
    37    22    43    1
    38    22    44    1
    39    23    24    1
    40    23    45    1
    41    23    46    1
    42    24    25    1
    43    24    30    1
    44    24    47    1
    45    25    26    1
    46    26    27    1
    47    26    48    1
    48    27    28    1
    49    27    49    1
    50    27    50    1
    51    28    29    1
    52    28    51    1
    53    28    52    1
    54    29    26    1
    55    29    53    1
    56    29    54    1
    57    30    31    1
    58    30    55    1
    59    30    56    1
    60    31    21    1
    61    31    57    1
    62    31    58    1
@<TRIPOS>MOLECULE
*****
 58 62 0 0 0
SMALL
GASTEIGER

@<TRIPOS>ATOM
      1 O          -0.0342   -1.0722   -1.9409 O.2     1  UNL11      -0.2700
      2 C           0.4228    0.0376   -1.4084 C.2     1  UNL11       0.2466
      3 C          -0.5906    0.9631   -0.9780 C.ar    1  UNL11       0.0372
      4 C          -0.5127    2.3240   -0.9336 C.ar    1  UNL11      -0.0496
      5 C          -1.5488    3.1420   -0.5043 C.ar    1  UNL11      -0.0608
      6 C          -2.7210    2.5524   -0.1001 C.ar    1  UNL11      -0.0582
      7 C          -2.8585    1.1994   -0.1220 C.ar    1  UNL11      -0.0407
      8 C          -4.1326    0.5431    0.3164 C.3     1  UNL11       0.0211
      9 C          -5.0106    0.4056   -0.8722 C.2     1  UNL11       0.1192
     10 N          -4.5396    0.2589   -2.1185 N.2     1  UNL11      -0.0073
     11 N          -5.3388    0.1393   -3.1554 N.am    1  UNL11      -0.0356
     12 C          -6.6564    0.1635   -2.9702 C.2     1  UNL11       0.4383
     13 O          -7.4082    0.0492   -3.9588 O.2     1  UNL11      -0.2116
     14 C          -7.2098    0.3096   -1.7300 C.ar    1  UNL11       0.1004
     15 C          -8.5812    0.3347   -1.5387 C.ar    1  UNL11      -0.0441
     16 C          -9.0798    0.4846   -0.2655 C.ar    1  UNL11      -0.0608
     17 C          -8.2438    0.6112    0.8321 C.ar    1  UNL11      -0.0611
     18 C          -6.8903    0.5838    0.6217 C.ar    1  UNL11      -0.0518
     19 C          -6.3797    0.4356   -0.6383 C.ar    1  UNL11       0.0192
     20 C          -1.8174    0.4232   -0.5508 C.ar    1  UNL11      -0.0461
     21 N           1.8175    0.0996   -1.3656 N.am    1  UNL11      -0.2974
     22 C           2.5858   -1.0770   -1.9182 C.3     1  UNL11       0.0173
     23 C           3.4808   -1.4751   -0.7607 C.3     1  UNL11      -0.0107
     24 C           4.5346   -0.4054   -0.6438 C.3     1  UNL11       0.0619
     25 O           5.1323   -0.3805    0.6107 O.3     1  UNL11      -0.3732
     26 C           5.7762   -1.5668    0.9319 C.3     1  UNL11       0.0591
     27 C           6.8964   -1.9847    0.0294 C.3     1  UNL11      -0.0265
     28 C           6.2659   -3.3811   -0.0541 C.3     1  UNL11      -0.0484
     29 C           4.9587   -2.7255    0.3405 C.3     1  UNL11      -0.0265
     30 C           4.0802    0.9572   -0.9918 C.3     1  UNL11      -0.0107
     31 C           2.5783    1.1725   -0.8509 C.3     1  UNL11       0.0173
     32 H           0.3666    2.8246   -1.2317 H       1  UNL11       0.0625
     33 H          -1.4165    4.2077   -0.4962 H       1  UNL11       0.0618
     34 H          -3.5307    3.1784    0.2348 H       1  UNL11       0.0620
     35 H          -3.9204   -0.4561    0.7592 H       1  UNL11       0.0379
     36 H          -4.6484    1.1679    1.0794 H       1  UNL11       0.0379
     37 H          -4.9076    0.0285   -4.0966 H       1  UNL11       0.4829
     38 H          -9.2021    0.2343   -2.4106 H       1  UNL11       0.0627
     39 H         -10.1392    0.5016   -0.1365 H       1  UNL11       0.0618
     40 H          -8.6315    0.7284    1.8276 H       1  UNL11       0.0618
     41 H          -6.1826    0.6784    1.4449 H       1  UNL11       0.0624
     42 H          -1.9608   -0.6553   -0.5557 H       1  UNL11       0.0628
     43 H           3.1701   -0.6336   -2.7462 H       1  UNL11       0.0465
     44 H           1.8846   -1.8530   -2.2063 H       1  UNL11       0.0465
     45 H           2.8315   -1.5234    0.1377 H       1  UNL11       0.0305
     46 H           3.9711   -2.4350   -0.9855 H       1  UNL11       0.0305
     47 H           5.3567   -0.6989   -1.3626 H       1  UNL11       0.0597
     48 H           5.9221   -1.7685    2.0021 H       1  UNL11       0.0596
     49 H           6.8815   -1.5214   -0.9579 H       1  UNL11       0.0290
     50 H           7.8984   -2.0992    0.5051 H       1  UNL11       0.0290
     51 H           6.6084   -4.0654    0.7364 H       1  UNL11       0.0267
     52 H           6.2919   -3.8041   -1.0695 H       1  UNL11       0.0267
     53 H           4.4056   -2.4415   -0.5890 H       1  UNL11       0.0290
     54 H           4.3538   -3.2609    1.0780 H       1  UNL11       0.0290
     55 H           4.5834    1.7028   -0.3440 H       1  UNL11       0.0305
     56 H           4.3614    1.2019   -2.0366 H       1  UNL11       0.0305
     57 H           2.3489    2.0963   -1.4032 H       1  UNL11       0.0465
     58 H           2.3627    1.3157    0.2187 H       1  UNL11       0.0465
@<TRIPOS>BOND
     1     1     2    2
     2     2     3    1
     3     2    21   am
     4     3     4   ar
     5     4     5   ar
     6     4    32    1
     7     5     6   ar
     8     5    33    1
     9     6     7   ar
    10     6    34    1
    11     7     8    1
    12     7    20   ar
    13     8     9    1
    14     8    35    1
    15     8    36    1
    16     9    10    2
    17    10    11    1
    18    11    12   am
    19    11    37    1
    20    12    13    2
    21    12    14    1
    22    14    15   ar
    23    15    16   ar
    24    15    38    1
    25    16    17   ar
    26    16    39    1
    27    17    18   ar
    28    17    40    1
    29    18    19   ar
    30    18    41    1
    31    19     9    1
    32    19    14   ar
    33    20     3   ar
    34    20    42    1
    35    21    22    1
    36    22    23    1
    37    22    43    1
    38    22    44    1
    39    23    24    1
    40    23    45    1
    41    23    46    1
    42    24    25    1
    43    24    30    1
    44    24    47    1
    45    25    26    1
    46    26    27    1
    47    26    48    1
    48    27    28    1
    49    27    49    1
    50    27    50    1
    51    28    29    1
    52    28    51    1
    53    28    52    1
    54    29    26    1
    55    29    53    1
    56    29    54    1
    57    30    31    1
    58    30    55    1
    59    30    56    1
    60    31    21    1
    61    31    57    1
    62    31    58    1
@<TRIPOS>MOLECULE
*****
 58 62 0 0 0
SMALL
GASTEIGER

@<TRIPOS>ATOM
      1 O          -0.0342   -1.0722   -1.9409 O.2     1  UNL11      -0.2700
      2 C           0.4228    0.0376   -1.4084 C.2     1  UNL11       0.2466
      3 C          -0.5906    0.9631   -0.9780 C.ar    1  UNL11       0.0372
      4 C          -1.8390    1.1349   -1.4996 C.ar    1  UNL11      -0.0496
      5 C          -2.7572    2.0560   -1.0144 C.ar    1  UNL11      -0.0608
      6 C          -2.3928    2.8414    0.0511 C.ar    1  UNL11      -0.0582
      7 C          -1.1610    2.7158    0.6140 C.ar    1  UNL11      -0.0407
      8 C          -0.7507    3.5667    1.7775 C.3     1  UNL11       0.0211
      9 C          -1.6823    3.2905    2.8994 C.2     1  UNL11       0.1192
     10 N          -2.6946    2.4162    2.8132 N.2     1  UNL11      -0.0073
     11 N          -3.5067    2.1894    3.8219 N.am    1  UNL11      -0.0356
     12 C          -3.3245    2.8437    4.9663 C.2     1  UNL11       0.4383
     13 O          -4.0988    2.6230    5.9188 O.2     1  UNL11      -0.2116
     14 C          -2.3150    3.7493    5.1288 C.ar    1  UNL11       0.1004
     15 C          -2.1267    4.4295    6.3203 C.ar    1  UNL11      -0.0441
     16 C          -1.0921    5.3300    6.4242 C.ar    1  UNL11      -0.0608
     17 C          -0.2323    5.5742    5.3656 C.ar    1  UNL11      -0.0611
     18 C          -0.4354    4.8911    4.1955 C.ar    1  UNL11      -0.0518
     19 C          -1.4598    3.9928    4.0772 C.ar    1  UNL11       0.0192
     20 C          -0.2806    1.7981    0.1109 C.ar    1  UNL11      -0.0461
     21 N           1.8175    0.0996   -1.3656 N.am    1  UNL11      -0.2974
     22 C           2.4431    1.3310   -0.7554 C.3     1  UNL11       0.0173
     23 C           3.3676    1.8239   -1.8515 C.3     1  UNL11      -0.0107
     24 C           4.5176    0.8532   -1.9134 C.3     1  UNL11       0.0619
     25 O           5.1902    0.9001   -3.1287 O.3     1  UNL11      -0.3732
     26 C           5.7442    2.1433   -3.3982 C.3     1  UNL11       0.0591
     27 C           6.7659    2.6448   -2.4243 C.3     1  UNL11      -0.0265
     28 C           6.0096    3.9787   -2.3665 C.3     1  UNL11      -0.0484
     29 C           4.7924    3.2162   -2.8473 C.3     1  UNL11      -0.0265
     30 C           4.1660   -0.5492   -1.6072 C.3     1  UNL11      -0.0107
     31 C           2.7006   -0.8941   -1.8426 C.3     1  UNL11       0.0173
     32 H          -2.1659    0.5575   -2.3196 H       1  UNL11       0.0625
     33 H          -3.7238    2.1366   -1.4755 H       1  UNL11       0.0618
     34 H          -3.0981    3.5591    0.4348 H       1  UNL11       0.0620
     35 H           0.2961    3.3338    2.0767 H       1  UNL11       0.0379
     36 H          -0.8125    4.6453    1.5105 H       1  UNL11       0.0379
     37 H          -4.2731    1.4975    3.6883 H       1  UNL11       0.4829
     38 H          -2.8110    4.2176    7.1220 H       1  UNL11       0.0627
     39 H          -0.9615    5.8452    7.3499 H       1  UNL11       0.0618
     40 H           0.5766    6.2774    5.4447 H       1  UNL11       0.0618
     41 H           0.2075    5.0402    3.3285 H       1  UNL11       0.0624
     42 H           0.6960    1.7236    0.5846 H       1  UNL11       0.0628
     43 H           3.0132    0.9285    0.1029 H       1  UNL11       0.0465
     44 H           1.6594    2.0376   -0.5037 H       1  UNL11       0.0465
     45 H           2.7723    1.8282   -2.7878 H       1  UNL11       0.0305
     46 H           3.7560    2.8199   -1.5877 H       1  UNL11       0.0305
     47 H           5.2652    1.2073   -1.1424 H       1  UNL11       0.0597
     48 H           5.9361    2.3731   -4.4554 H       1  UNL11       0.0596
     49 H           6.7325    2.1672   -1.4443 H       1  UNL11       0.0290
     50 H           7.7808    2.8544   -2.8362 H       1  UNL11       0.0290
     51 H           6.3372    4.7024   -3.1278 H       1  UNL11       0.0267
     52 H           5.9363    4.3870   -1.3474 H       1  UNL11       0.0267
     53 H           4.2114    2.8706   -1.9565 H       1  UNL11       0.0290
     54 H           4.1881    3.7072   -3.6157 H       1  UNL11       0.0290
     55 H           4.7720   -1.2377   -2.2298 H       1  UNL11       0.0305
     56 H           4.4040   -0.7838   -0.5494 H       1  UNL11       0.0305
     57 H           2.5212   -1.8428   -1.3144 H       1  UNL11       0.0465
     58 H           2.5638   -1.0397   -2.9248 H       1  UNL11       0.0465
@<TRIPOS>BOND
     1     1     2    2
     2     2     3    1
     3     2    21   am
     4     3     4   ar
     5     4     5   ar
     6     4    32    1
     7     5     6   ar
     8     5    33    1
     9     6     7   ar
    10     6    34    1
    11     7     8    1
    12     7    20   ar
    13     8     9    1
    14     8    35    1
    15     8    36    1
    16     9    10    2
    17    10    11    1
    18    11    12   am
    19    11    37    1
    20    12    13    2
    21    12    14    1
    22    14    15   ar
    23    15    16   ar
    24    15    38    1
    25    16    17   ar
    26    16    39    1
    27    17    18   ar
    28    17    40    1
    29    18    19   ar
    30    18    41    1
    31    19     9    1
    32    19    14   ar
    33    20     3   ar
    34    20    42    1
    35    21    22    1
    36    22    23    1
    37    22    43    1
    38    22    44    1
    39    23    24    1
    40    23    45    1
    41    23    46    1
    42    24    25    1
    43    24    30    1
    44    24    47    1
    45    25    26    1
    46    26    27    1
    47    26    48    1
    48    27    28    1
    49    27    49    1
    50    27    50    1
    51    28    29    1
    52    28    51    1
    53    28    52    1
    54    29    26    1
    55    29    53    1
    56    29    54    1
    57    30    31    1
    58    30    55    1
    59    30    56    1
    60    31    21    1
    61    31    57    1
    62    31    58    1
@<TRIPOS>MOLECULE
*****
 58 62 0 0 0
SMALL
GASTEIGER

@<TRIPOS>ATOM
      1 O          -0.0342   -1.0722   -1.9409 O.2     1  UNL11      -0.2700
      2 C           0.4228    0.0376   -1.4084 C.2     1  UNL11       0.2466
      3 C          -0.5906    0.9631   -0.9780 C.ar    1  UNL11       0.0372
      4 C          -1.8390    1.1349   -1.4996 C.ar    1  UNL11      -0.0496
      5 C          -2.7572    2.0560   -1.0144 C.ar    1  UNL11      -0.0608
      6 C          -2.3928    2.8414    0.0511 C.ar    1  UNL11      -0.0582
      7 C          -1.1610    2.7158    0.6140 C.ar    1  UNL11      -0.0407
      8 C          -0.7507    3.5667    1.7775 C.3     1  UNL11       0.0211
      9 C          -1.6823    3.2905    2.8994 C.2     1  UNL11       0.1192
     10 N          -1.8222    2.0785    3.4545 N.2     1  UNL11      -0.0073
     11 N          -2.6551    1.8595    4.4478 N.am    1  UNL11      -0.0356
     12 C          -3.3847    2.8664    4.9220 C.2     1  UNL11       0.4383
     13 O          -4.1725    2.6510    5.8645 O.2     1  UNL11      -0.2116
     14 C          -3.2963    4.1286    4.4073 C.ar    1  UNL11       0.1004
     15 C          -4.0562    5.1755    4.9016 C.ar    1  UNL11      -0.0441
     16 C          -3.9237    6.4252    4.3423 C.ar    1  UNL11      -0.0608
     17 C          -3.0481    6.6636    3.2954 C.ar    1  UNL11      -0.0611
     18 C          -2.3054    5.6148    2.8208 C.ar    1  UNL11      -0.0518
     19 C          -2.4263    4.3667    3.3666 C.ar    1  UNL11       0.0192
     20 C          -0.2806    1.7981    0.1109 C.ar    1  UNL11      -0.0461
     21 N           1.8175    0.0996   -1.3656 N.am    1  UNL11      -0.2974
     22 C           2.4431    1.3310   -0.7554 C.3     1  UNL11       0.0173
     23 C           3.3676    1.8239   -1.8515 C.3     1  UNL11      -0.0107
     24 C           4.5176    0.8532   -1.9134 C.3     1  UNL11       0.0619
     25 O           5.1902    0.9001   -3.1287 O.3     1  UNL11      -0.3732
     26 C           6.2428   -0.0006   -3.2049 C.3     1  UNL11       0.0591
     27 C           5.8932   -1.4504   -3.0651 C.3     1  UNL11      -0.0265
     28 C           7.0135   -1.5877   -2.0256 C.3     1  UNL11      -0.0484
     29 C           6.8897   -0.0929   -1.8144 C.3     1  UNL11      -0.0265
     30 C           4.1660   -0.5492   -1.6072 C.3     1  UNL11      -0.0107
     31 C           2.7006   -0.8941   -1.8426 C.3     1  UNL11       0.0173
     32 H          -2.1659    0.5575   -2.3196 H       1  UNL11       0.0625
     33 H          -3.7238    2.1366   -1.4755 H       1  UNL11       0.0618
     34 H          -3.0981    3.5591    0.4348 H       1  UNL11       0.0620
     35 H           0.2961    3.3338    2.0767 H       1  UNL11       0.0379
     36 H          -0.8125    4.6453    1.5105 H       1  UNL11       0.0379
     37 H          -2.7155    0.8943    4.8332 H       1  UNL11       0.4829
     38 H          -4.7260    4.9574    5.7138 H       1  UNL11       0.0627
     39 H          -4.5170    7.2205    4.7359 H       1  UNL11       0.0618
     40 H          -2.9432    7.6393    2.8570 H       1  UNL11       0.0618
     41 H          -1.6000    5.7401    1.9998 H       1  UNL11       0.0624
     42 H           0.6960    1.7236    0.5846 H       1  UNL11       0.0628
     43 H           3.0132    0.9285    0.1029 H       1  UNL11       0.0465
     44 H           1.6594    2.0376   -0.5037 H       1  UNL11       0.0465
     45 H           2.7723    1.8282   -2.7878 H       1  UNL11       0.0305
     46 H           3.7560    2.8199   -1.5877 H       1  UNL11       0.0305
     47 H           5.2652    1.2073   -1.1424 H       1  UNL11       0.0597
     48 H           7.0341    0.2341   -3.9303 H       1  UNL11       0.0596
     49 H           4.9314   -1.6420   -2.5878 H       1  UNL11       0.0290
     50 H           6.1555   -2.1078   -3.9269 H       1  UNL11       0.0290
     51 H           7.9915   -1.8356   -2.4644 H       1  UNL11       0.0267
     52 H           6.7266   -2.2095   -1.1645 H       1  UNL11       0.0267
     53 H           6.1665    0.0924   -0.9818 H       1  UNL11       0.0290
     54 H           7.8286    0.4613   -1.7263 H       1  UNL11       0.0290
     55 H           4.7720   -1.2377   -2.2298 H       1  UNL11       0.0305
     56 H           4.4040   -0.7838   -0.5494 H       1  UNL11       0.0305
     57 H           2.5212   -1.8428   -1.3144 H       1  UNL11       0.0465
     58 H           2.5638   -1.0397   -2.9248 H       1  UNL11       0.0465
@<TRIPOS>BOND
     1     1     2    2
     2     2     3    1
     3     2    21   am
     4     3     4   ar
     5     4     5   ar
     6     4    32    1
     7     5     6   ar
     8     5    33    1
     9     6     7   ar
    10     6    34    1
    11     7     8    1
    12     7    20   ar
    13     8     9    1
    14     8    35    1
    15     8    36    1
    16     9    10    2
    17    10    11    1
    18    11    12   am
    19    11    37    1
    20    12    13    2
    21    12    14    1
    22    14    15   ar
    23    15    16   ar
    24    15    38    1
    25    16    17   ar
    26    16    39    1
    27    17    18   ar
    28    17    40    1
    29    18    19   ar
    30    18    41    1
    31    19     9    1
    32    19    14   ar
    33    20     3   ar
    34    20    42    1
    35    21    22    1
    36    22    23    1
    37    22    43    1
    38    22    44    1
    39    23    24    1
    40    23    45    1
    41    23    46    1
    42    24    25    1
    43    24    30    1
    44    24    47    1
    45    25    26    1
    46    26    27    1
    47    26    48    1
    48    27    28    1
    49    27    49    1
    50    27    50    1
    51    28    29    1
    52    28    51    1
    53    28    52    1
    54    29    26    1
    55    29    53    1
    56    29    54    1
    57    30    31    1
    58    30    55    1
    59    30    56    1
    60    31    21    1
    61    31    57    1
    62    31    58    1
@<TRIPOS>MOLECULE
*****
 58 62 0 0 0
SMALL
GASTEIGER

@<TRIPOS>ATOM
      1 O          -0.0342   -1.0722   -1.9409 O.2     1  UNL11      -0.2700
      2 C           0.4228    0.0376   -1.4084 C.2     1  UNL11       0.2466
      3 C          -0.5906    0.9631   -0.9780 C.ar    1  UNL11       0.0372
      4 C          -1.8390    1.1349   -1.4996 C.ar    1  UNL11      -0.0496
      5 C          -2.7572    2.0560   -1.0144 C.ar    1  UNL11      -0.0608
      6 C          -2.3928    2.8414    0.0511 C.ar    1  UNL11      -0.0582
      7 C          -1.1610    2.7158    0.6140 C.ar    1  UNL11      -0.0407
      8 C          -0.7507    3.5667    1.7775 C.3     1  UNL11       0.0211
      9 C          -0.4329    2.6673    2.9145 C.2     1  UNL11       0.1192
     10 N           0.7718    2.6242    3.5005 N.2     1  UNL11      -0.0073
     11 N           1.0284    1.8179    4.5067 N.am    1  UNL11      -0.0356
     12 C           0.0681    1.0174    4.9629 C.2     1  UNL11       0.4383
     13 O           0.3190    0.2554    5.9178 O.2     1  UNL11      -0.2116
     14 C          -1.1838    1.0056    4.4166 C.ar    1  UNL11       0.1004
     15 C          -2.1821    0.1719    4.8922 C.ar    1  UNL11      -0.0441
     16 C          -3.4237    0.2046    4.3012 C.ar    1  UNL11      -0.0608
     17 C          -3.7015    1.0517    3.2405 C.ar    1  UNL11      -0.0611
     18 C          -2.7004    1.8685    2.7848 C.ar    1  UNL11      -0.0518
     19 C          -1.4609    1.8471    3.3622 C.ar    1  UNL11       0.0192
     20 C          -0.2806    1.7981    0.1109 C.ar    1  UNL11      -0.0461
     21 N           1.8175    0.0996   -1.3656 N.am    1  UNL11      -0.2974
     22 C           2.4431    1.3310   -0.7554 C.3     1  UNL11       0.0173
     23 C           3.3676    1.8239   -1.8515 C.3     1  UNL11      -0.0107
     24 C           4.5176    0.8532   -1.9134 C.3     1  UNL11       0.0619
     25 O           5.1902    0.9001   -3.1287 O.3     1  UNL11      -0.3732
     26 C           5.7442    2.1433   -3.3982 C.3     1  UNL11       0.0591
     27 C           6.4736    2.2819   -4.6991 C.3     1  UNL11      -0.0265
     28 C           7.6492    2.9077   -3.9369 C.3     1  UNL11      -0.0484
     29 C           7.1121    2.2139   -2.7022 C.3     1  UNL11      -0.0265
     30 C           4.1660   -0.5492   -1.6072 C.3     1  UNL11      -0.0107
     31 C           2.7006   -0.8941   -1.8426 C.3     1  UNL11       0.0173
     32 H          -2.1659    0.5575   -2.3196 H       1  UNL11       0.0625
     33 H          -3.7238    2.1366   -1.4755 H       1  UNL11       0.0618
     34 H          -3.0981    3.5591    0.4348 H       1  UNL11       0.0620
     35 H           0.1372    4.1835    1.5114 H       1  UNL11       0.0379
     36 H          -1.5806    4.2469    2.0727 H       1  UNL11       0.0379
     37 H           1.9854    1.8341    4.9163 H       1  UNL11       0.4829
     38 H          -1.9343   -0.4732    5.7158 H       1  UNL11       0.0627
     39 H          -4.1813   -0.4445    4.6807 H       1  UNL11       0.0618
     40 H          -4.6709    1.0787    2.7773 H       1  UNL11       0.0618
     41 H          -2.8583    2.5561    1.9544 H       1  UNL11       0.0624
     42 H           0.6960    1.7236    0.5846 H       1  UNL11       0.0628
     43 H           3.0132    0.9285    0.1029 H       1  UNL11       0.0465
     44 H           1.6594    2.0376   -0.5037 H       1  UNL11       0.0465
     45 H           2.7723    1.8282   -2.7878 H       1  UNL11       0.0305
     46 H           3.7560    2.8199   -1.5877 H       1  UNL11       0.0305
     47 H           5.2652    1.2073   -1.1424 H       1  UNL11       0.0597
     48 H           5.1587    3.0174   -3.0812 H       1  UNL11       0.0596
     49 H           6.7921    1.3386   -5.1444 H       1  UNL11       0.0290
     50 H           6.0850    3.0535   -5.4044 H       1  UNL11       0.0290
     51 H           7.5717    3.9999   -3.8303 H       1  UNL11       0.0267
     52 H           8.6284    2.5497   -4.2887 H       1  UNL11       0.0267
     53 H           7.6076    1.2158   -2.6081 H       1  UNL11       0.0290
     54 H           7.1089    2.8032   -1.7807 H       1  UNL11       0.0290
     55 H           4.7720   -1.2377   -2.2298 H       1  UNL11       0.0305
     56 H           4.4040   -0.7838   -0.5494 H       1  UNL11       0.0305
     57 H           2.5212   -1.8428   -1.3144 H       1  UNL11       0.0465
     58 H           2.5638   -1.0397   -2.9248 H       1  UNL11       0.0465
@<TRIPOS>BOND
     1     1     2    2
     2     2     3    1
     3     2    21   am
     4     3     4   ar
     5     4     5   ar
     6     4    32    1
     7     5     6   ar
     8     5    33    1
     9     6     7   ar
    10     6    34    1
    11     7     8    1
    12     7    20   ar
    13     8     9    1
    14     8    35    1
    15     8    36    1
    16     9    10    2
    17    10    11    1
    18    11    12   am
    19    11    37    1
    20    12    13    2
    21    12    14    1
    22    14    15   ar
    23    15    16   ar
    24    15    38    1
    25    16    17   ar
    26    16    39    1
    27    17    18   ar
    28    17    40    1
    29    18    19   ar
    30    18    41    1
    31    19     9    1
    32    19    14   ar
    33    20     3   ar
    34    20    42    1
    35    21    22    1
    36    22    23    1
    37    22    43    1
    38    22    44    1
    39    23    24    1
    40    23    45    1
    41    23    46    1
    42    24    25    1
    43    24    30    1
    44    24    47    1
    45    25    26    1
    46    26    27    1
    47    26    48    1
    48    27    28    1
    49    27    49    1
    50    27    50    1
    51    28    29    1
    52    28    51    1
    53    28    52    1
    54    29    26    1
    55    29    53    1
    56    29    54    1
    57    30    31    1
    58    30    55    1
    59    30    56    1
    60    31    21    1
    61    31    57    1
    62    31    58    1
@<TRIPOS>MOLECULE
*****
 58 62 0 0 0
SMALL
GASTEIGER

@<TRIPOS>ATOM
      1 O          -0.0342   -1.0722   -1.9409 O.2     1  UNL11      -0.2700
      2 C           0.4228    0.0376   -1.4084 C.2     1  UNL11       0.2466
      3 C          -0.5906    0.9631   -0.9780 C.ar    1  UNL11       0.0372
      4 C          -1.8390    1.1349   -1.4996 C.ar    1  UNL11      -0.0496
      5 C          -2.7572    2.0560   -1.0144 C.ar    1  UNL11      -0.0608
      6 C          -2.3928    2.8414    0.0511 C.ar    1  UNL11      -0.0582
      7 C          -1.1610    2.7158    0.6140 C.ar    1  UNL11      -0.0407
      8 C          -0.7507    3.5667    1.7775 C.3     1  UNL11       0.0211
      9 C          -0.8336    4.9881    1.3586 C.2     1  UNL11       0.1192
     10 N          -1.9728    5.5682    0.9556 N.2     1  UNL11      -0.0073
     11 N          -2.0200    6.8298    0.5890 N.am    1  UNL11      -0.0356
     12 C          -0.9075    7.5595    0.6162 C.2     1  UNL11       0.4383
     13 O          -0.9602    8.7557    0.2672 O.2     1  UNL11      -0.2116
     14 C           0.2901    7.0376    1.0151 C.ar    1  UNL11       0.1004
     15 C           1.4471    7.7981    1.0429 C.ar    1  UNL11      -0.0441
     16 C           2.6240    7.2169    1.4542 C.ar    1  UNL11      -0.0608
     17 C           2.6815    5.8880    1.8420 C.ar    1  UNL11      -0.0611
     18 C           1.5260    5.1528    1.8075 C.ar    1  UNL11      -0.0518
     19 C           0.3484    5.7168    1.4008 C.ar    1  UNL11       0.0192
     20 C          -0.2806    1.7981    0.1109 C.ar    1  UNL11      -0.0461
     21 N           1.8175    0.0996   -1.3656 N.am    1  UNL11      -0.2974
     22 C           2.5858   -1.0770   -1.9182 C.3     1  UNL11       0.0173
     23 C           3.4808   -1.4751   -0.7607 C.3     1  UNL11      -0.0107
     24 C           4.5346   -0.4054   -0.6438 C.3     1  UNL11       0.0619
     25 O           5.1323   -0.3805    0.6107 O.3     1  UNL11      -0.3732
     26 C           5.7762   -1.5668    0.9319 C.3     1  UNL11       0.0591
     27 C           6.8964   -1.9847    0.0294 C.3     1  UNL11      -0.0265
     28 C           6.2659   -3.3811   -0.0541 C.3     1  UNL11      -0.0484
     29 C           4.9587   -2.7255    0.3405 C.3     1  UNL11      -0.0265
     30 C           4.0802    0.9572   -0.9918 C.3     1  UNL11      -0.0107
     31 C           2.5783    1.1725   -0.8509 C.3     1  UNL11       0.0173
     32 H          -2.1659    0.5575   -2.3196 H       1  UNL11       0.0625
     33 H          -3.7238    2.1366   -1.4755 H       1  UNL11       0.0618
     34 H          -3.0981    3.5591    0.4348 H       1  UNL11       0.0620
     35 H          -1.4190    3.3796    2.6481 H       1  UNL11       0.0379
     36 H           0.2961    3.3362    2.0769 H       1  UNL11       0.0379
     37 H          -2.9373    7.2185    0.2865 H       1  UNL11       0.4829
     38 H           1.3688    8.8254    0.7357 H       1  UNL11       0.0627
     39 H           3.5061    7.8179    1.4697 H       1  UNL11       0.0618
     40 H           3.6001    5.4321    2.1636 H       1  UNL11       0.0618
     41 H           1.5081    4.1035    2.1006 H       1  UNL11       0.0624
     42 H           0.6960    1.7236    0.5846 H       1  UNL11       0.0628
     43 H           3.1701   -0.6336   -2.7462 H       1  UNL11       0.0465
     44 H           1.8846   -1.8530   -2.2063 H       1  UNL11       0.0465
     45 H           2.8315   -1.5234    0.1377 H       1  UNL11       0.0305
     46 H           3.9711   -2.4350   -0.9855 H       1  UNL11       0.0305
     47 H           5.3567   -0.6989   -1.3626 H       1  UNL11       0.0597
     48 H           5.9221   -1.7685    2.0021 H       1  UNL11       0.0596
     49 H           6.8815   -1.5214   -0.9579 H       1  UNL11       0.0290
     50 H           7.8984   -2.0992    0.5051 H       1  UNL11       0.0290
     51 H           6.6084   -4.0654    0.7364 H       1  UNL11       0.0267
     52 H           6.2919   -3.8041   -1.0695 H       1  UNL11       0.0267
     53 H           4.4056   -2.4415   -0.5890 H       1  UNL11       0.0290
     54 H           4.3538   -3.2609    1.0780 H       1  UNL11       0.0290
     55 H           4.5834    1.7028   -0.3440 H       1  UNL11       0.0305
     56 H           4.3614    1.2019   -2.0366 H       1  UNL11       0.0305
     57 H           2.3489    2.0963   -1.4032 H       1  UNL11       0.0465
     58 H           2.3627    1.3157    0.2187 H       1  UNL11       0.0465
@<TRIPOS>BOND
     1     1     2    2
     2     2     3    1
     3     2    21   am
     4     3     4   ar
     5     4     5   ar
     6     4    32    1
     7     5     6   ar
     8     5    33    1
     9     6     7   ar
    10     6    34    1
    11     7     8    1
    12     7    20   ar
    13     8     9    1
    14     8    35    1
    15     8    36    1
    16     9    10    2
    17    10    11    1
    18    11    12   am
    19    11    37    1
    20    12    13    2
    21    12    14    1
    22    14    15   ar
    23    15    16   ar
    24    15    38    1
    25    16    17   ar
    26    16    39    1
    27    17    18   ar
    28    17    40    1
    29    18    19   ar
    30    18    41    1
    31    19     9    1
    32    19    14   ar
    33    20     3   ar
    34    20    42    1
    35    21    22    1
    36    22    23    1
    37    22    43    1
    38    22    44    1
    39    23    24    1
    40    23    45    1
    41    23    46    1
    42    24    25    1
    43    24    30    1
    44    24    47    1
    45    25    26    1
    46    26    27    1
    47    26    48    1
    48    27    28    1
    49    27    49    1
    50    27    50    1
    51    28    29    1
    52    28    51    1
    53    28    52    1
    54    29    26    1
    55    29    53    1
    56    29    54    1
    57    30    31    1
    58    30    55    1
    59    30    56    1
    60    31    21    1
    61    31    57    1
    62    31    58    1
@<TRIPOS>MOLECULE
*****
 58 62 0 0 0
SMALL
GASTEIGER

@<TRIPOS>ATOM
      1 O          -0.0342   -1.0722   -1.9409 O.2     1  UNL11      -0.2700
      2 C           0.4228    0.0376   -1.4084 C.2     1  UNL11       0.2466
      3 C          -0.5906    0.9631   -0.9780 C.ar    1  UNL11       0.0372
      4 C          -1.8484    0.6763   -0.5357 C.ar    1  UNL11      -0.0496
      5 C          -2.7633    1.6404   -0.1351 C.ar    1  UNL11      -0.0608
      6 C          -2.3855    2.9593   -0.1853 C.ar    1  UNL11      -0.0582
      7 C          -1.1437    3.3074   -0.6175 C.ar    1  UNL11      -0.0407
      8 C          -0.7186    4.7434   -0.6770 C.3     1  UNL11       0.0211
      9 C          -0.3768    5.0629   -2.0855 C.2     1  UNL11       0.1192
     10 N          -1.2577    4.9737   -3.0919 N.2     1  UNL11      -0.0073
     11 N          -0.9300    5.2623   -4.3319 N.am    1  UNL11      -0.0356
     12 C           0.3118    5.6558   -4.6041 C.2     1  UNL11       0.4383
     13 O           0.6152    5.9281   -5.7827 O.2     1  UNL11      -0.2116
     14 C           1.2638    5.7704   -3.6312 C.ar    1  UNL11       0.1004
     15 C           2.5557    6.1799   -3.9159 C.ar    1  UNL11      -0.0441
     16 C           3.4711    6.2764   -2.8938 C.ar    1  UNL11      -0.0608
     17 C           3.1330    5.9739   -1.5846 C.ar    1  UNL11      -0.0611
     18 C           1.8499    5.5708   -1.3238 C.ar    1  UNL11      -0.0518
     19 C           0.9288    5.4700   -2.3296 C.ar    1  UNL11       0.0192
     20 C          -0.2670    2.3319   -1.0049 C.ar    1  UNL11      -0.0461
     21 N           1.8175    0.0996   -1.3656 N.am    1  UNL11      -0.2974
     22 C           2.5858   -1.0770   -1.9182 C.3     1  UNL11       0.0173
     23 C           3.4808   -1.4751   -0.7607 C.3     1  UNL11      -0.0107
     24 C           4.5346   -0.4054   -0.6438 C.3     1  UNL11       0.0619
     25 O           5.1323   -0.3805    0.6107 O.3     1  UNL11      -0.3732
     26 C           5.7762   -1.5668    0.9319 C.3     1  UNL11       0.0591
     27 C           6.4333   -1.6275    2.2766 C.3     1  UNL11      -0.0265
     28 C           7.7044   -2.1534    1.5966 C.3     1  UNL11      -0.0484
     29 C           7.1854   -1.5220    0.3213 C.3     1  UNL11      -0.0265
     30 C           4.0802    0.9572   -0.9918 C.3     1  UNL11      -0.0107
     31 C           2.5783    1.1725   -0.8509 C.3     1  UNL11       0.0173
     32 H          -2.1872   -0.3211   -0.4803 H       1  UNL11       0.0625
     33 H          -3.7379    1.3409    0.2025 H       1  UNL11       0.0618
     34 H          -3.0882    3.7148    0.1233 H       1  UNL11       0.0620
     35 H          -1.5389    5.4048   -0.3176 H       1  UNL11       0.0379
     36 H           0.1777    4.9095   -0.0385 H       1  UNL11       0.0379
     37 H          -1.6623    5.1718   -5.0663 H       1  UNL11       0.4829
     38 H           2.7859    6.4067   -4.9413 H       1  UNL11       0.0627
     39 H           4.4622    6.5937   -3.1312 H       1  UNL11       0.0618
     40 H           3.8468    6.0486   -0.7846 H       1  UNL11       0.0618
     41 H           1.5245    5.3196   -0.3147 H       1  UNL11       0.0624
     42 H           0.7178    2.6449   -1.3452 H       1  UNL11       0.0628
     43 H           3.1701   -0.6336   -2.7462 H       1  UNL11       0.0465
     44 H           1.8846   -1.8530   -2.2063 H       1  UNL11       0.0465
     45 H           2.8315   -1.5234    0.1377 H       1  UNL11       0.0305
     46 H           3.9711   -2.4350   -0.9855 H       1  UNL11       0.0305
     47 H           5.3567   -0.6989   -1.3626 H       1  UNL11       0.0597
     48 H           5.2909   -2.4926    0.5931 H       1  UNL11       0.0596
     49 H           6.6393   -0.6554    2.7261 H       1  UNL11       0.0290
     50 H           6.0715   -2.4238    2.9684 H       1  UNL11       0.0290
     51 H           7.7303   -3.2492    1.5018 H       1  UNL11       0.0267
     52 H           8.6246   -1.7064    2.0017 H       1  UNL11       0.0267
     53 H           7.5957   -0.4848    0.2424 H       1  UNL11       0.0290
     54 H           7.2912   -2.1181   -0.5898 H       1  UNL11       0.0290
     55 H           4.5834    1.7028   -0.3440 H       1  UNL11       0.0305
     56 H           4.3614    1.2019   -2.0366 H       1  UNL11       0.0305
     57 H           2.3489    2.0963   -1.4032 H       1  UNL11       0.0465
     58 H           2.3627    1.3157    0.2187 H       1  UNL11       0.0465
@<TRIPOS>BOND
     1     1     2    2
     2     2     3    1
     3     2    21   am
     4     3     4   ar
     5     4     5   ar
     6     4    32    1
     7     5     6   ar
     8     5    33    1
     9     6     7   ar
    10     6    34    1
    11     7     8    1
    12     7    20   ar
    13     8     9    1
    14     8    35    1
    15     8    36    1
    16     9    10    2
    17    10    11    1
    18    11    12   am
    19    11    37    1
    20    12    13    2
    21    12    14    1
    22    14    15   ar
    23    15    16   ar
    24    15    38    1
    25    16    17   ar
    26    16    39    1
    27    17    18   ar
    28    17    40    1
    29    18    19   ar
    30    18    41    1
    31    19     9    1
    32    19    14   ar
    33    20     3   ar
    34    20    42    1
    35    21    22    1
    36    22    23    1
    37    22    43    1
    38    22    44    1
    39    23    24    1
    40    23    45    1
    41    23    46    1
    42    24    25    1
    43    24    30    1
    44    24    47    1
    45    25    26    1
    46    26    27    1
    47    26    48    1
    48    27    28    1
    49    27    49    1
    50    27    50    1
    51    28    29    1
    52    28    51    1
    53    28    52    1
    54    29    26    1
    55    29    53    1
    56    29    54    1
    57    30    31    1
    58    30    55    1
    59    30    56    1
    60    31    21    1
    61    31    57    1
    62    31    58    1
@<TRIPOS>MOLECULE
*****
 58 62 0 0 0
SMALL
GASTEIGER

@<TRIPOS>ATOM
      1 O          -0.0342   -1.0722   -1.9409 O.2     1  UNL11      -0.2700
      2 C           0.4228    0.0376   -1.4084 C.2     1  UNL11       0.2466
      3 C          -0.5906    0.9631   -0.9780 C.ar    1  UNL11       0.0372
      4 C          -1.8484    0.6763   -0.5357 C.ar    1  UNL11      -0.0496
      5 C          -2.7633    1.6404   -0.1351 C.ar    1  UNL11      -0.0608
      6 C          -2.3855    2.9593   -0.1853 C.ar    1  UNL11      -0.0582
      7 C          -1.1437    3.3074   -0.6175 C.ar    1  UNL11      -0.0407
      8 C          -0.7186    4.7434   -0.6770 C.3     1  UNL11       0.0211
      9 C           0.4636    4.9090    0.2049 C.2     1  UNL11       0.1192
     10 N           1.0831    6.0836    0.3874 N.2     1  UNL11      -0.0073
     11 N           2.1294    6.2042    1.1742 N.am    1  UNL11      -0.0356
     12 C           2.5932    5.1324    1.8123 C.2     1  UNL11       0.4383
     13 O           3.5860    5.2548    2.5572 O.2     1  UNL11      -0.2116
     14 C           2.0144    3.9027    1.6759 C.ar    1  UNL11       0.1004
     15 C           2.4982    2.7882    2.3404 C.ar    1  UNL11      -0.0441
     16 C           1.8730    1.5759    2.1633 C.ar    1  UNL11      -0.0608
     17 C           0.7700    1.4410    1.3358 C.ar    1  UNL11      -0.0611
     18 C           0.3068    2.5555    0.6875 C.ar    1  UNL11      -0.0518
     19 C           0.9179    3.7676    0.8535 C.ar    1  UNL11       0.0192
     20 C          -0.2670    2.3319   -1.0049 C.ar    1  UNL11      -0.0461
     21 N           1.8175    0.0996   -1.3656 N.am    1  UNL11      -0.2974
     22 C           2.4431    1.3310   -0.7554 C.3     1  UNL11       0.0173
     23 C           3.3676    1.8239   -1.8515 C.3     1  UNL11      -0.0107
     24 C           4.5176    0.8532   -1.9134 C.3     1  UNL11       0.0619
     25 O           5.1902    0.9001   -3.1287 O.3     1  UNL11      -0.3732
     26 C           4.3756    0.6127   -4.2145 C.3     1  UNL11       0.0591
     27 C           3.2095    1.5266   -4.4354 C.3     1  UNL11      -0.0265
     28 C           2.3060    0.2924   -4.5581 C.3     1  UNL11      -0.0484
     29 C           3.3651   -0.4595   -3.7788 C.3     1  UNL11      -0.0265
     30 C           4.1660   -0.5492   -1.6072 C.3     1  UNL11      -0.0107
     31 C           2.7006   -0.8941   -1.8426 C.3     1  UNL11       0.0173
     32 H          -2.1872   -0.3211   -0.4803 H       1  UNL11       0.0625
     33 H          -3.7379    1.3409    0.2025 H       1  UNL11       0.0618
     34 H          -3.0882    3.7148    0.1233 H       1  UNL11       0.0620
     35 H          -0.4648    5.0285   -1.7229 H       1  UNL11       0.0379
     36 H          -1.5370    5.4057   -0.3165 H       1  UNL11       0.0379
     37 H           2.5637    7.1454    1.2716 H       1  UNL11       0.4829
     38 H           3.3553    2.9264    2.9746 H       1  UNL11       0.0627
     39 H           2.2591    0.7274    2.6834 H       1  UNL11       0.0618
     40 H           0.2802    0.4946    1.1961 H       1  UNL11       0.0618
     41 H          -0.5565    2.5125    0.0240 H       1  UNL11       0.0624
     42 H           0.7178    2.6449   -1.3452 H       1  UNL11       0.0628
     43 H           3.0132    0.9285    0.1029 H       1  UNL11       0.0465
     44 H           1.6594    2.0376   -0.5037 H       1  UNL11       0.0465
     45 H           2.7723    1.8282   -2.7878 H       1  UNL11       0.0305
     46 H           3.7560    2.8199   -1.5877 H       1  UNL11       0.0305
     47 H           5.2652    1.2073   -1.1424 H       1  UNL11       0.0597
     48 H           4.8805    0.2520   -5.1213 H       1  UNL11       0.0596
     49 H           2.9138    2.1058   -3.5598 H       1  UNL11       0.0290
     50 H           3.1783    2.0612   -5.4136 H       1  UNL11       0.0290
     51 H           2.2324   -0.0975   -5.5842 H       1  UNL11       0.0267
     52 H           1.3411    0.4136   -4.0434 H       1  UNL11       0.0267
     53 H           3.1134   -0.4076   -2.6905 H       1  UNL11       0.0290
     54 H           3.6054   -1.4646   -4.1375 H       1  UNL11       0.0290
     55 H           4.7720   -1.2377   -2.2298 H       1  UNL11       0.0305
     56 H           4.4040   -0.7838   -0.5494 H       1  UNL11       0.0305
     57 H           2.5212   -1.8428   -1.3144 H       1  UNL11       0.0465
     58 H           2.5638   -1.0397   -2.9248 H       1  UNL11       0.0465
@<TRIPOS>BOND
     1     1     2    2
     2     2     3    1
     3     2    21   am
     4     3     4   ar
     5     4     5   ar
     6     4    32    1
     7     5     6   ar
     8     5    33    1
     9     6     7   ar
    10     6    34    1
    11     7     8    1
    12     7    20   ar
    13     8     9    1
    14     8    35    1
    15     8    36    1
    16     9    10    2
    17    10    11    1
    18    11    12   am
    19    11    37    1
    20    12    13    2
    21    12    14    1
    22    14    15   ar
    23    15    16   ar
    24    15    38    1
    25    16    17   ar
    26    16    39    1
    27    17    18   ar
    28    17    40    1
    29    18    19   ar
    30    18    41    1
    31    19     9    1
    32    19    14   ar
    33    20     3   ar
    34    20    42    1
    35    21    22    1
    36    22    23    1
    37    22    43    1
    38    22    44    1
    39    23    24    1
    40    23    45    1
    41    23    46    1
    42    24    25    1
    43    24    30    1
    44    24    47    1
    45    25    26    1
    46    26    27    1
    47    26    48    1
    48    27    28    1
    49    27    49    1
    50    27    50    1
    51    28    29    1
    52    28    51    1
    53    28    52    1
    54    29    26    1
    55    29    53    1
    56    29    54    1
    57    30    31    1
    58    30    55    1
    59    30    56    1
    60    31    21    1
    61    31    57    1
    62    31    58    1
@<TRIPOS>MOLECULE
*****
 58 62 0 0 0
SMALL
GASTEIGER

@<TRIPOS>ATOM
      1 O          -0.0342   -1.0722   -1.9409 O.2     1  UNL11      -0.2700
      2 C           0.4228    0.0376   -1.4084 C.2     1  UNL11       0.2466
      3 C          -0.5906    0.9631   -0.9780 C.ar    1  UNL11       0.0372
      4 C          -1.8390    1.1349   -1.4996 C.ar    1  UNL11      -0.0496
      5 C          -2.7572    2.0560   -1.0144 C.ar    1  UNL11      -0.0608
      6 C          -2.3928    2.8414    0.0511 C.ar    1  UNL11      -0.0582
      7 C          -1.1610    2.7158    0.6140 C.ar    1  UNL11      -0.0407
      8 C          -0.7507    3.5667    1.7775 C.3     1  UNL11       0.0211
      9 C           0.4427    4.3514    1.3741 C.2     1  UNL11       0.1192
     10 N           1.0699    5.2058    2.1947 N.2     1  UNL11      -0.0073
     11 N           2.1257    5.8899    1.8130 N.am    1  UNL11      -0.0356
     12 C           2.5918    5.7348    0.5762 C.2     1  UNL11       0.4383
     13 O           3.5940    6.3869    0.2215 O.2     1  UNL11      -0.2116
     14 C           2.0056    4.8826   -0.3160 C.ar    1  UNL11       0.1004
     15 C           2.4917    4.7223   -1.6028 C.ar    1  UNL11      -0.0441
     16 C           1.8588    3.8491   -2.4566 C.ar    1  UNL11      -0.0608
     17 C           0.7458    3.1248   -2.0615 C.ar    1  UNL11      -0.0611
     18 C           0.2806    3.2976   -0.7845 C.ar    1  UNL11      -0.0518
     19 C           0.8992    4.1622    0.0758 C.ar    1  UNL11       0.0192
     20 C          -0.2806    1.7981    0.1109 C.ar    1  UNL11      -0.0461
     21 N           1.8175    0.0996   -1.3656 N.am    1  UNL11      -0.2974
     22 C           2.5858   -1.0770   -1.9182 C.3     1  UNL11       0.0173
     23 C           3.4808   -1.4751   -0.7607 C.3     1  UNL11      -0.0107
     24 C           4.5346   -0.4054   -0.6438 C.3     1  UNL11       0.0619
     25 O           5.1323   -0.3805    0.6107 O.3     1  UNL11      -0.3732
     26 C           6.0947    0.6109    0.7370 C.3     1  UNL11       0.0591
     27 C           5.6277    2.0225    0.5545 C.3     1  UNL11      -0.0265
     28 C           6.7936    2.2490   -0.4171 C.3     1  UNL11      -0.0484
     29 C           6.8154    0.7472   -0.6130 C.3     1  UNL11      -0.0265
     30 C           4.0802    0.9572   -0.9918 C.3     1  UNL11      -0.0107
     31 C           2.5783    1.1725   -0.8509 C.3     1  UNL11       0.0173
     32 H          -2.1659    0.5575   -2.3196 H       1  UNL11       0.0625
     33 H          -3.7238    2.1366   -1.4755 H       1  UNL11       0.0618
     34 H          -3.0981    3.5591    0.4348 H       1  UNL11       0.0620
     35 H          -1.5814    4.2476    2.0706 H       1  UNL11       0.0379
     36 H          -0.4885    2.9292    2.6512 H       1  UNL11       0.0379
     37 H           2.5654    6.5368    2.5001 H       1  UNL11       0.4829
     38 H           3.3564    5.2988   -1.8781 H       1  UNL11       0.0627
     39 H           2.2471    3.7377   -3.4446 H       1  UNL11       0.0618
     40 H           0.2498    2.4421   -2.7272 H       1  UNL11       0.0618
     41 H          -0.5902    2.7561   -0.4160 H       1  UNL11       0.0624
     42 H           0.6960    1.7236    0.5846 H       1  UNL11       0.0628
     43 H           3.1701   -0.6336   -2.7462 H       1  UNL11       0.0465
     44 H           1.8846   -1.8530   -2.2063 H       1  UNL11       0.0465
     45 H           2.8315   -1.5234    0.1377 H       1  UNL11       0.0305
     46 H           3.9711   -2.4350   -0.9855 H       1  UNL11       0.0305
     47 H           5.3567   -0.6989   -1.3626 H       1  UNL11       0.0597
     48 H           6.8573    0.4547    1.5125 H       1  UNL11       0.0596
     49 H           4.6841    2.1231    0.0169 H       1  UNL11       0.0290
     50 H           5.7773    2.7089    1.4206 H       1  UNL11       0.0290
     51 H           7.7169    2.5872    0.0764 H       1  UNL11       0.0267
     52 H           6.5066    2.8345   -1.3033 H       1  UNL11       0.0267
     53 H           6.1642    0.4902   -1.4850 H       1  UNL11       0.0290
     54 H           7.8033    0.2779   -0.6356 H       1  UNL11       0.0290
     55 H           4.5834    1.7028   -0.3440 H       1  UNL11       0.0305
     56 H           4.3614    1.2019   -2.0366 H       1  UNL11       0.0305
     57 H           2.3489    2.0963   -1.4032 H       1  UNL11       0.0465
     58 H           2.3627    1.3157    0.2187 H       1  UNL11       0.0465
@<TRIPOS>BOND
     1     1     2    2
     2     2     3    1
     3     2    21   am
     4     3     4   ar
     5     4     5   ar
     6     4    32    1
     7     5     6   ar
     8     5    33    1
     9     6     7   ar
    10     6    34    1
    11     7     8    1
    12     7    20   ar
    13     8     9    1
    14     8    35    1
    15     8    36    1
    16     9    10    2
    17    10    11    1
    18    11    12   am
    19    11    37    1
    20    12    13    2
    21    12    14    1
    22    14    15   ar
    23    15    16   ar
    24    15    38    1
    25    16    17   ar
    26    16    39    1
    27    17    18   ar
    28    17    40    1
    29    18    19   ar
    30    18    41    1
    31    19     9    1
    32    19    14   ar
    33    20     3   ar
    34    20    42    1
    35    21    22    1
    36    22    23    1
    37    22    43    1
    38    22    44    1
    39    23    24    1
    40    23    45    1
    41    23    46    1
    42    24    25    1
    43    24    30    1
    44    24    47    1
    45    25    26    1
    46    26    27    1
    47    26    48    1
    48    27    28    1
    49    27    49    1
    50    27    50    1
    51    28    29    1
    52    28    51    1
    53    28    52    1
    54    29    26    1
    55    29    53    1
    56    29    54    1
    57    30    31    1
    58    30    55    1
    59    30    56    1
    60    31    21    1
    61    31    57    1
    62    31    58    1
@<TRIPOS>MOLECULE
*****
 58 62 0 0 0
SMALL
GASTEIGER

@<TRIPOS>ATOM
      1 O          -0.0342   -1.0722   -1.9409 O.2     1  UNL11      -0.2700
      2 C           0.4228    0.0376   -1.4084 C.2     1  UNL11       0.2466
      3 C          -0.5906    0.9631   -0.9780 C.ar    1  UNL11       0.0372
      4 C          -1.9439    0.8161   -1.0612 C.ar    1  UNL11      -0.0496
      5 C          -2.8516    1.7665   -0.6140 C.ar    1  UNL11      -0.0608
      6 C          -2.3644    2.9221   -0.0554 C.ar    1  UNL11      -0.0582
      7 C          -1.0241    3.1258    0.0549 C.ar    1  UNL11      -0.0407
      8 C          -0.4790    4.3826    0.6627 C.3     1  UNL11       0.0211
      9 C           0.8163    4.0557    1.3091 C.2     1  UNL11       0.1192
     10 N           1.0467    4.2294    2.6181 N.2     1  UNL11      -0.0073
     11 N           2.2037    3.9321    3.1670 N.am    1  UNL11      -0.0356
     12 C           3.1805    3.4434    2.4067 C.2     1  UNL11       0.4383
     13 O           4.2753    3.1636    2.9346 O.2     1  UNL11      -0.2116
     14 C           3.0198    3.2392    1.0657 C.ar    1  UNL11       0.1004
     15 C           4.0372    2.7307    0.2756 C.ar    1  UNL11      -0.0441
     16 C           3.8159    2.5468   -1.0694 C.ar    1  UNL11      -0.0608
     17 C           2.5993    2.8577   -1.6549 C.ar    1  UNL11      -0.0611
     18 C           1.6057    3.3595   -0.8562 C.ar    1  UNL11      -0.0518
     19 C           1.8109    3.5480    0.4827 C.ar    1  UNL11       0.0192
     20 C          -0.1577    2.1685   -0.3961 C.ar    1  UNL11      -0.0461
     21 N           1.8175    0.0996   -1.3656 N.am    1  UNL11      -0.2974
     22 C           2.5858   -1.0770   -1.9182 C.3     1  UNL11       0.0173
     23 C           3.4808   -1.4751   -0.7607 C.3     1  UNL11      -0.0107
     24 C           4.5346   -0.4054   -0.6438 C.3     1  UNL11       0.0619
     25 O           5.1323   -0.3805    0.6107 O.3     1  UNL11      -0.3732
     26 C           5.7762   -1.5668    0.9319 C.3     1  UNL11       0.0591
     27 C           6.4333   -1.6275    2.2766 C.3     1  UNL11      -0.0265
     28 C           7.7044   -2.1534    1.5966 C.3     1  UNL11      -0.0484
     29 C           7.1854   -1.5220    0.3213 C.3     1  UNL11      -0.0265
     30 C           4.0802    0.9572   -0.9918 C.3     1  UNL11      -0.0107
     31 C           2.5783    1.1725   -0.8509 C.3     1  UNL11       0.0173
     32 H          -2.3679   -0.0524   -1.4837 H       1  UNL11       0.0625
     33 H          -3.9052    1.5829   -0.7118 H       1  UNL11       0.0618
     34 H          -3.0605    3.6656    0.2944 H       1  UNL11       0.0620
     35 H          -0.3357    5.1605   -0.1209 H       1  UNL11       0.0379
     36 H          -1.1800    4.7775    1.4317 H       1  UNL11       0.0379
     37 H           2.3166    4.0914    4.1897 H       1  UNL11       0.4829
     38 H           4.9687    2.5000    0.7603 H       1  UNL11       0.0627
     39 H           4.6110    2.1538   -1.6633 H       1  UNL11       0.0618
     40 H           2.4245    2.7148   -2.7057 H       1  UNL11       0.0618
     41 H           0.6278    3.6224   -1.2586 H       1  UNL11       0.0624
     42 H           0.9077    2.3633   -0.2925 H       1  UNL11       0.0628
     43 H           3.1701   -0.6336   -2.7462 H       1  UNL11       0.0465
     44 H           1.8846   -1.8530   -2.2063 H       1  UNL11       0.0465
     45 H           2.8315   -1.5234    0.1377 H       1  UNL11       0.0305
     46 H           3.9711   -2.4350   -0.9855 H       1  UNL11       0.0305
     47 H           5.3567   -0.6989   -1.3626 H       1  UNL11       0.0597
     48 H           5.2909   -2.4926    0.5931 H       1  UNL11       0.0596
     49 H           6.6393   -0.6554    2.7261 H       1  UNL11       0.0290
     50 H           6.0715   -2.4238    2.9684 H       1  UNL11       0.0290
     51 H           7.7303   -3.2492    1.5018 H       1  UNL11       0.0267
     52 H           8.6246   -1.7064    2.0017 H       1  UNL11       0.0267
     53 H           7.5957   -0.4848    0.2424 H       1  UNL11       0.0290
     54 H           7.2912   -2.1181   -0.5898 H       1  UNL11       0.0290
     55 H           4.5834    1.7028   -0.3440 H       1  UNL11       0.0305
     56 H           4.3614    1.2019   -2.0366 H       1  UNL11       0.0305
     57 H           2.3489    2.0963   -1.4032 H       1  UNL11       0.0465
     58 H           2.3627    1.3157    0.2187 H       1  UNL11       0.0465
@<TRIPOS>BOND
     1     1     2    2
     2     2     3    1
     3     2    21   am
     4     3     4   ar
     5     4     5   ar
     6     4    32    1
     7     5     6   ar
     8     5    33    1
     9     6     7   ar
    10     6    34    1
    11     7     8    1
    12     7    20   ar
    13     8     9    1
    14     8    35    1
    15     8    36    1
    16     9    10    2
    17    10    11    1
    18    11    12   am
    19    11    37    1
    20    12    13    2
    21    12    14    1
    22    14    15   ar
    23    15    16   ar
    24    15    38    1
    25    16    17   ar
    26    16    39    1
    27    17    18   ar
    28    17    40    1
    29    18    19   ar
    30    18    41    1
    31    19     9    1
    32    19    14   ar
    33    20     3   ar
    34    20    42    1
    35    21    22    1
    36    22    23    1
    37    22    43    1
    38    22    44    1
    39    23    24    1
    40    23    45    1
    41    23    46    1
    42    24    25    1
    43    24    30    1
    44    24    47    1
    45    25    26    1
    46    26    27    1
    47    26    48    1
    48    27    28    1
    49    27    49    1
    50    27    50    1
    51    28    29    1
    52    28    51    1
    53    28    52    1
    54    29    26    1
    55    29    53    1
    56    29    54    1
    57    30    31    1
    58    30    55    1
    59    30    56    1
    60    31    21    1
    61    31    57    1
    62    31    58    1
@<TRIPOS>MOLECULE
*****
 58 62 0 0 0
SMALL
GASTEIGER

@<TRIPOS>ATOM
      1 O          -0.0342   -1.0722   -1.9409 O.2     1  UNL11      -0.2700
      2 C           0.4228    0.0376   -1.4084 C.2     1  UNL11       0.2466
      3 C          -0.5906    0.9631   -0.9780 C.ar    1  UNL11       0.0372
      4 C          -1.9439    0.8161   -1.0612 C.ar    1  UNL11      -0.0496
      5 C          -2.8516    1.7665   -0.6140 C.ar    1  UNL11      -0.0608
      6 C          -2.3644    2.9221   -0.0554 C.ar    1  UNL11      -0.0582
      7 C          -1.0241    3.1258    0.0549 C.ar    1  UNL11      -0.0407
      8 C          -0.4790    4.3826    0.6627 C.3     1  UNL11       0.0211
      9 C          -0.9659    4.4643    2.0623 C.2     1  UNL11       0.1192
     10 N          -0.6686    5.4810    2.8837 N.2     1  UNL11      -0.0073
     11 N          -1.1123    5.5299    4.1202 N.am    1  UNL11      -0.0356
     12 C          -1.8804    4.5440    4.5776 C.2     1  UNL11       0.4383
     13 O          -2.2977    4.5975    5.7516 O.2     1  UNL11      -0.2116
     14 C          -2.2252    3.4756    3.7995 C.ar    1  UNL11       0.1004
     15 C          -3.0245    2.4503    4.2768 C.ar    1  UNL11      -0.0441
     16 C          -3.3383    1.4000    3.4458 C.ar    1  UNL11      -0.0608
     17 C          -2.8744    1.3416    2.1416 C.ar    1  UNL11      -0.0611
     18 C          -2.0853    2.3658    1.6885 C.ar    1  UNL11      -0.0518
     19 C          -1.7647    3.4166    2.5029 C.ar    1  UNL11       0.0192
     20 C          -0.1577    2.1685   -0.3961 C.ar    1  UNL11      -0.0461
     21 N           1.8175    0.0996   -1.3656 N.am    1  UNL11      -0.2974
     22 C           2.4431    1.3310   -0.7554 C.3     1  UNL11       0.0173
     23 C           3.3676    1.8239   -1.8515 C.3     1  UNL11      -0.0107
     24 C           4.5176    0.8532   -1.9134 C.3     1  UNL11       0.0619
     25 O           5.1902    0.9001   -3.1287 O.3     1  UNL11      -0.3732
     26 C           5.7442    2.1433   -3.3982 C.3     1  UNL11       0.0591
     27 C           6.7659    2.6448   -2.4243 C.3     1  UNL11      -0.0265
     28 C           6.0096    3.9787   -2.3665 C.3     1  UNL11      -0.0484
     29 C           4.7924    3.2162   -2.8473 C.3     1  UNL11      -0.0265
     30 C           4.1660   -0.5492   -1.6072 C.3     1  UNL11      -0.0107
     31 C           2.7006   -0.8941   -1.8426 C.3     1  UNL11       0.0173
     32 H          -2.3679   -0.0524   -1.4837 H       1  UNL11       0.0625
     33 H          -3.9052    1.5829   -0.7118 H       1  UNL11       0.0618
     34 H          -3.0605    3.6656    0.2944 H       1  UNL11       0.0620
     35 H           0.6340    4.3723    0.6395 H       1  UNL11       0.0379
     36 H          -0.8381    5.2732    0.1001 H       1  UNL11       0.0379
     37 H          -0.8440    6.3481    4.7054 H       1  UNL11       0.4829
     38 H          -3.3677    2.5255    5.2929 H       1  UNL11       0.0627
     39 H          -3.9556    0.6185    3.8301 H       1  UNL11       0.0618
     40 H          -3.1184    0.5218    1.4908 H       1  UNL11       0.0618
     41 H          -1.6907    2.3761    0.6729 H       1  UNL11       0.0624
     42 H           0.9077    2.3633   -0.2925 H       1  UNL11       0.0628
     43 H           3.0132    0.9285    0.1029 H       1  UNL11       0.0465
     44 H           1.6594    2.0376   -0.5037 H       1  UNL11       0.0465
     45 H           2.7723    1.8282   -2.7878 H       1  UNL11       0.0305
     46 H           3.7560    2.8199   -1.5877 H       1  UNL11       0.0305
     47 H           5.2652    1.2073   -1.1424 H       1  UNL11       0.0597
     48 H           5.9361    2.3731   -4.4554 H       1  UNL11       0.0596
     49 H           6.7325    2.1672   -1.4443 H       1  UNL11       0.0290
     50 H           7.7808    2.8544   -2.8362 H       1  UNL11       0.0290
     51 H           6.3372    4.7024   -3.1278 H       1  UNL11       0.0267
     52 H           5.9363    4.3870   -1.3474 H       1  UNL11       0.0267
     53 H           4.2114    2.8706   -1.9565 H       1  UNL11       0.0290
     54 H           4.1881    3.7072   -3.6157 H       1  UNL11       0.0290
     55 H           4.7720   -1.2377   -2.2298 H       1  UNL11       0.0305
     56 H           4.4040   -0.7838   -0.5494 H       1  UNL11       0.0305
     57 H           2.5212   -1.8428   -1.3144 H       1  UNL11       0.0465
     58 H           2.5638   -1.0397   -2.9248 H       1  UNL11       0.0465
@<TRIPOS>BOND
     1     1     2    2
     2     2     3    1
     3     2    21   am
     4     3     4   ar
     5     4     5   ar
     6     4    32    1
     7     5     6   ar
     8     5    33    1
     9     6     7   ar
    10     6    34    1
    11     7     8    1
    12     7    20   ar
    13     8     9    1
    14     8    35    1
    15     8    36    1
    16     9    10    2
    17    10    11    1
    18    11    12   am
    19    11    37    1
    20    12    13    2
    21    12    14    1
    22    14    15   ar
    23    15    16   ar
    24    15    38    1
    25    16    17   ar
    26    16    39    1
    27    17    18   ar
    28    17    40    1
    29    18    19   ar
    30    18    41    1
    31    19     9    1
    32    19    14   ar
    33    20     3   ar
    34    20    42    1
    35    21    22    1
    36    22    23    1
    37    22    43    1
    38    22    44    1
    39    23    24    1
    40    23    45    1
    41    23    46    1
    42    24    25    1
    43    24    30    1
    44    24    47    1
    45    25    26    1
    46    26    27    1
    47    26    48    1
    48    27    28    1
    49    27    49    1
    50    27    50    1
    51    28    29    1
    52    28    51    1
    53    28    52    1
    54    29    26    1
    55    29    53    1
    56    29    54    1
    57    30    31    1
    58    30    55    1
    59    30    56    1
    60    31    21    1
    61    31    57    1
    62    31    58    1
@<TRIPOS>MOLECULE
*****
 58 62 0 0 0
SMALL
GASTEIGER

@<TRIPOS>ATOM
      1 O          -0.0342   -1.0722   -1.9409 O.2     1  UNL11      -0.2700
      2 C           0.4228    0.0376   -1.4084 C.2     1  UNL11       0.2466
      3 C          -0.5906    0.9631   -0.9780 C.ar    1  UNL11       0.0372
      4 C          -0.5223    1.8554    0.0511 C.ar    1  UNL11      -0.0496
      5 C          -1.5551    2.7173    0.3940 C.ar    1  UNL11      -0.0608
      6 C          -2.7135    2.6729   -0.3416 C.ar    1  UNL11      -0.0582
      7 C          -2.8408    1.8038   -1.3800 C.ar    1  UNL11      -0.0407
      8 C          -4.0998    1.7452   -2.1911 C.3     1  UNL11       0.0211
      9 C          -3.7536    2.0605   -3.5994 C.2     1  UNL11       0.1192
     10 N          -2.8994    1.3265   -4.3263 N.2     1  UNL11      -0.0073
     11 N          -2.6090    1.6272   -5.5727 N.am    1  UNL11      -0.0356
     12 C          -3.1761    2.6907   -6.1368 C.2     1  UNL11       0.4383
     13 O          -2.8958    2.9695   -7.3197 O.2     1  UNL11      -0.2116
     14 C          -4.0560    3.4859   -5.4591 C.ar    1  UNL11       0.1004
     15 C          -4.6454    4.5924   -6.0473 C.ar    1  UNL11      -0.0441
     16 C          -5.5241    5.3556   -5.3142 C.ar    1  UNL11      -0.0608
     17 C          -5.8351    5.0449   -4.0002 C.ar    1  UNL11      -0.0611
     18 C          -5.2416    3.9463   -3.4367 C.ar    1  UNL11      -0.0518
     19 C          -4.3658    3.1780   -4.1529 C.ar    1  UNL11       0.0192
     20 C          -1.8035    0.9684   -1.6907 C.ar    1  UNL11      -0.0461
     21 N           1.8175    0.0996   -1.3656 N.am    1  UNL11      -0.2974
     22 C           2.5858   -1.0770   -1.9182 C.3     1  UNL11       0.0173
     23 C           3.4808   -1.4751   -0.7607 C.3     1  UNL11      -0.0107
     24 C           4.5346   -0.4054   -0.6438 C.3     1  UNL11       0.0619
     25 O           5.1323   -0.3805    0.6107 O.3     1  UNL11      -0.3732
     26 C           6.0947    0.6109    0.7370 C.3     1  UNL11       0.0591
     27 C           5.6277    2.0225    0.5545 C.3     1  UNL11      -0.0265
     28 C           6.7936    2.2490   -0.4171 C.3     1  UNL11      -0.0484
     29 C           6.8154    0.7472   -0.6130 C.3     1  UNL11      -0.0265
     30 C           4.0802    0.9572   -0.9918 C.3     1  UNL11      -0.0107
     31 C           2.5783    1.1725   -0.8509 C.3     1  UNL11       0.0173
     32 H           0.3449    1.9271    0.6473 H       1  UNL11       0.0625
     33 H          -1.4308    3.3948    1.2180 H       1  UNL11       0.0618
     34 H          -3.5205    3.3375   -0.0834 H       1  UNL11       0.0620
     35 H          -4.5575    0.7326   -2.1219 H       1  UNL11       0.0379
     36 H          -4.8352    2.4939   -1.8208 H       1  UNL11       0.0379
     37 H          -1.9372    1.0153   -6.0809 H       1  UNL11       0.4829
     38 H          -4.3829    4.8063   -7.0677 H       1  UNL11       0.0627
     39 H          -5.9693    6.2047   -5.7834 H       1  UNL11       0.0618
     40 H          -6.5214    5.6399   -3.4257 H       1  UNL11       0.0618
     41 H          -5.4465    3.6514   -2.4079 H       1  UNL11       0.0624
     42 H          -1.9385    0.2859   -2.5271 H       1  UNL11       0.0628
     43 H           3.1701   -0.6336   -2.7462 H       1  UNL11       0.0465
     44 H           1.8846   -1.8530   -2.2063 H       1  UNL11       0.0465
     45 H           2.8315   -1.5234    0.1377 H       1  UNL11       0.0305
     46 H           3.9711   -2.4350   -0.9855 H       1  UNL11       0.0305
     47 H           5.3567   -0.6989   -1.3626 H       1  UNL11       0.0597
     48 H           6.8573    0.4547    1.5125 H       1  UNL11       0.0596
     49 H           4.6841    2.1231    0.0169 H       1  UNL11       0.0290
     50 H           5.7773    2.7089    1.4206 H       1  UNL11       0.0290
     51 H           7.7169    2.5872    0.0764 H       1  UNL11       0.0267
     52 H           6.5066    2.8345   -1.3033 H       1  UNL11       0.0267
     53 H           6.1642    0.4902   -1.4850 H       1  UNL11       0.0290
     54 H           7.8033    0.2779   -0.6356 H       1  UNL11       0.0290
     55 H           4.5834    1.7028   -0.3440 H       1  UNL11       0.0305
     56 H           4.3614    1.2019   -2.0366 H       1  UNL11       0.0305
     57 H           2.3489    2.0963   -1.4032 H       1  UNL11       0.0465
     58 H           2.3627    1.3157    0.2187 H       1  UNL11       0.0465
@<TRIPOS>BOND
     1     1     2    2
     2     2     3    1
     3     2    21   am
     4     3     4   ar
     5     4     5   ar
     6     4    32    1
     7     5     6   ar
     8     5    33    1
     9     6     7   ar
    10     6    34    1
    11     7     8    1
    12     7    20   ar
    13     8     9    1
    14     8    35    1
    15     8    36    1
    16     9    10    2
    17    10    11    1
    18    11    12   am
    19    11    37    1
    20    12    13    2
    21    12    14    1
    22    14    15   ar
    23    15    16   ar
    24    15    38    1
    25    16    17   ar
    26    16    39    1
    27    17    18   ar
    28    17    40    1
    29    18    19   ar
    30    18    41    1
    31    19     9    1
    32    19    14   ar
    33    20     3   ar
    34    20    42    1
    35    21    22    1
    36    22    23    1
    37    22    43    1
    38    22    44    1
    39    23    24    1
    40    23    45    1
    41    23    46    1
    42    24    25    1
    43    24    30    1
    44    24    47    1
    45    25    26    1
    46    26    27    1
    47    26    48    1
    48    27    28    1
    49    27    49    1
    50    27    50    1
    51    28    29    1
    52    28    51    1
    53    28    52    1
    54    29    26    1
    55    29    53    1
    56    29    54    1
    57    30    31    1
    58    30    55    1
    59    30    56    1
    60    31    21    1
    61    31    57    1
    62    31    58    1
