@<TRIPOS>MOLECULE
*****
 39 41 0 0 0
SMALL
GASTEIGER

@<TRIPOS>ATOM
      1 O           1.4344    1.1248   -0.5157 O.2     1  UNL11      -0.2917
      2 C           0.2110    0.9103   -0.2824 C.2     1  UNL11       0.1676
      3 C          -0.6826    0.3428   -1.3314 C.3     1  UNL11       0.0362
      4 C          -1.7070   -0.4343   -0.6277 C.ar    1  UNL11      -0.0322
      5 C          -2.9657   -0.5312   -1.2072 C.ar    1  UNL11      -0.0576
      6 C          -3.9700   -1.2895   -0.6647 C.ar    1  UNL11      -0.0609
      7 C          -3.7204   -1.9787    0.4948 C.ar    1  UNL11      -0.0540
      8 C          -2.4831   -1.9099    1.1070 C.ar    1  UNL11      -0.0176
      9 C          -2.2841   -2.6000    2.2673 C.ar    1  UNL11      -0.0540
     10 C          -1.0446   -2.5151    2.8889 C.ar    1  UNL11      -0.0612
     11 C          -0.0589   -1.7553    2.3402 C.ar    1  UNL11      -0.0612
     12 C          -0.2922   -1.0741    1.1719 C.ar    1  UNL11      -0.0538
     13 C          -1.4895   -1.1298    0.5283 C.ar    1  UNL11      -0.0143
     14 C          -0.2905    1.2383    1.0391 C.ar    1  UNL11       0.0234
     15 C           0.4498    1.7635    2.0631 C.ar    1  UNL11      -0.0059
     16 C          -0.1051    2.0396    3.3192 C.ar    1  UNL11       0.1611
     17 O           0.7455    2.5680    4.2758 O.3     1  UNL11      -0.5032
     18 C          -1.4309    1.7729    3.5178 C.ar    1  UNL11       0.1846
     19 O          -2.0114    2.0324    4.7437 O.3     1  UNL11      -0.5019
     20 C          -2.2045    1.2473    2.5158 C.ar    1  UNL11       0.1170
     21 N          -3.6004    0.9701    2.7434 N.4     1  UNL11      -0.2014
     22 O          -4.0513    1.8503    3.6661 O.3     1  UNL11      -0.2807
     23 F          -3.7038   -0.2951    3.1607 F       1  UNL11      -0.0963
     24 C          -1.6331    0.9860    1.2927 C.ar    1  UNL11      -0.0215
     25 H          -0.1536   -0.3118   -2.0354 H       1  UNL11       0.0394
     26 H          -1.1099    1.1536   -1.9705 H       1  UNL11       0.0394
     27 H          -3.1676    0.0116   -2.1209 H       1  UNL11       0.0621
     28 H          -4.9576   -1.3714   -1.1153 H       1  UNL11       0.0618
     29 H          -4.5344   -2.5809    0.9134 H       1  UNL11       0.0624
     30 H          -3.0469   -3.2056    2.7190 H       1  UNL11       0.0624
     31 H          -0.8748   -3.0523    3.8002 H       1  UNL11       0.0618
     32 H           0.8890   -1.7128    2.8538 H       1  UNL11       0.0618
     33 H           0.4861   -0.4751    0.7814 H       1  UNL11       0.0624
     34 H           1.4900    1.9717    1.9038 H       1  UNL11       0.0662
     35 H           0.4135    2.7855    5.1925 H       1  UNL11       0.2923
     36 H          -1.5383    2.4081    5.5269 H       1  UNL11       0.2924
     37 H          -4.1392    1.0891    1.8490 H       1  UNL11       0.2057
     38 H          -2.3016    0.5703    0.5380 H       1  UNL11       0.0647
     39 H          -3.5526    1.7385    4.4905 H       1  UNL11       0.2449
@<TRIPOS>BOND
     1     1     2    2
     2     2     3    1
     3     2    14    1
     4     3     4    1
     5     3    25    1
     6     3    26    1
     7     4     5   ar
     8     5     6   ar
     9     5    27    1
    10     6     7   ar
    11     6    28    1
    12     7     8   ar
    13     7    29    1
    14     8     9   ar
    15     9    10   ar
    16     9    30    1
    17    10    11   ar
    18    10    31    1
    19    11    12   ar
    20    11    32    1
    21    12    13   ar
    22    12    33    1
    23    13     4   ar
    24    13     8   ar
    25    14    15   ar
    26    15    16   ar
    27    15    34    1
    28    16    17    1
    29    16    18   ar
    30    17    35    1
    31    18    19    1
    32    18    20   ar
    33    19    36    1
    34    20    21    1
    35    20    24   ar
    36    21    22    1
    37    21    23    1
    38    21    37    1
    39    24    14   ar
    40    24    38    1
    41    22    39    1
@<TRIPOS>MOLECULE
*****
 39 41 0 0 0
SMALL
GASTEIGER

@<TRIPOS>ATOM
      1 O           0.3564    2.1594   -0.1571 O.2     1  UNL11      -0.2917
      2 C           0.2110    0.9103   -0.2824 C.2     1  UNL11       0.1676
      3 C          -0.6826    0.3428   -1.3314 C.3     1  UNL11       0.0362
      4 C          -1.7070   -0.4343   -0.6277 C.ar    1  UNL11      -0.0322
      5 C          -1.3653   -1.0172    0.5860 C.ar    1  UNL11      -0.0576
      6 C          -2.2689   -1.7043    1.3535 C.ar    1  UNL11      -0.0609
      7 C          -3.5600   -1.8193    0.9044 C.ar    1  UNL11      -0.0540
      8 C          -3.9440   -1.2568   -0.2984 C.ar    1  UNL11      -0.0176
      9 C          -5.2351   -1.4089   -0.7132 C.ar    1  UNL11      -0.0540
     10 C          -5.6133   -0.8567   -1.9306 C.ar    1  UNL11      -0.0612
     11 C          -4.7040   -0.1807   -2.6830 C.ar    1  UNL11      -0.0612
     12 C          -3.4134   -0.0458   -2.2361 C.ar    1  UNL11      -0.0538
     13 C          -2.9996   -0.5683   -1.0501 C.ar    1  UNL11      -0.0143
     14 C           0.9415    0.0519    0.6313 C.ar    1  UNL11       0.0234
     15 C           1.3962   -1.2072    0.3480 C.ar    1  UNL11      -0.0059
     16 C           2.0828   -1.9822    1.2916 C.ar    1  UNL11       0.1611
     17 O           2.4915   -3.2421    0.8875 O.3     1  UNL11      -0.5032
     18 C           2.3013   -1.4532    2.5329 C.ar    1  UNL11       0.1846
     19 O           2.9744   -2.1890    3.4882 O.3     1  UNL11      -0.5019
     20 C           1.8613   -0.1952    2.8532 C.ar    1  UNL11       0.1170
     21 N           2.0984    0.3458    4.1679 N.4     1  UNL11      -0.2014
     22 O           1.0810    1.1888    4.4574 O.3     1  UNL11      -0.2807
     23 F           3.2798    0.9698    4.1468 F       1  UNL11      -0.0963
     24 C           1.1898    0.5429    1.9072 C.ar    1  UNL11      -0.0215
     25 H          -0.1536   -0.3118   -2.0354 H       1  UNL11       0.0394
     26 H          -1.1099    1.1536   -1.9705 H       1  UNL11       0.0394
     27 H          -0.3480   -0.9302    0.9436 H       1  UNL11       0.0621
     28 H          -2.0079   -2.1612    2.3065 H       1  UNL11       0.0618
     29 H          -4.2692   -2.3707    1.5316 H       1  UNL11       0.0624
     30 H          -5.9699   -1.9384   -0.1368 H       1  UNL11       0.0624
     31 H          -6.6240   -0.9685   -2.2679 H       1  UNL11       0.0618
     32 H          -5.0354    0.2316   -3.6233 H       1  UNL11       0.0618
     33 H          -2.7244    0.4663   -2.8528 H       1  UNL11       0.0624
     34 H           1.2232   -1.6192   -0.6272 H       1  UNL11       0.0662
     35 H           2.9839   -3.8459    1.5125 H       1  UNL11       0.2923
     36 H           3.3281   -3.1030    3.3547 H       1  UNL11       0.2924
     37 H           2.1251   -0.4312    4.8750 H       1  UNL11       0.2057
     38 H           0.8676    1.5355    2.2236 H       1  UNL11       0.0647
     39 H           1.0584    1.9049    3.8034 H       1  UNL11       0.2449
@<TRIPOS>BOND
     1     1     2    2
     2     2     3    1
     3     2    14    1
     4     3     4    1
     5     3    25    1
     6     3    26    1
     7     4     5   ar
     8     5     6   ar
     9     5    27    1
    10     6     7   ar
    11     6    28    1
    12     7     8   ar
    13     7    29    1
    14     8     9   ar
    15     9    10   ar
    16     9    30    1
    17    10    11   ar
    18    10    31    1
    19    11    12   ar
    20    11    32    1
    21    12    13   ar
    22    12    33    1
    23    13     4   ar
    24    13     8   ar
    25    14    15   ar
    26    15    16   ar
    27    15    34    1
    28    16    17    1
    29    16    18   ar
    30    17    35    1
    31    18    19    1
    32    18    20   ar
    33    19    36    1
    34    20    21    1
    35    20    24   ar
    36    21    22    1
    37    21    23    1
    38    21    37    1
    39    24    14   ar
    40    24    38    1
    41    22    39    1
@<TRIPOS>MOLECULE
*****
 39 41 0 0 0
SMALL
GASTEIGER

@<TRIPOS>ATOM
      1 O           1.2330    0.2805    0.1127 O.2     1  UNL11      -0.2917
      2 C           0.2110    0.9103   -0.2824 C.2     1  UNL11       0.1676
      3 C          -0.6826    0.3428   -1.3314 C.3     1  UNL11       0.0362
      4 C          -1.7070   -0.4343   -0.6277 C.ar    1  UNL11      -0.0322
      5 C          -1.4557   -1.7791   -0.3870 C.ar    1  UNL11      -0.0576
      6 C          -2.3176   -2.5742    0.3221 C.ar    1  UNL11      -0.0609
      7 C          -3.4720   -2.0185    0.8124 C.ar    1  UNL11      -0.0540
      8 C          -3.7637   -0.6850    0.5954 C.ar    1  UNL11      -0.0176
      9 C          -4.9307   -0.1783    1.0888 C.ar    1  UNL11      -0.0540
     10 C          -5.2287    1.1582    0.8544 C.ar    1  UNL11      -0.0612
     11 C          -4.3649    1.9337    0.1456 C.ar    1  UNL11      -0.0612
     12 C          -3.1995    1.3925   -0.3363 C.ar    1  UNL11      -0.0538
     13 C          -2.8663    0.0899   -0.1292 C.ar    1  UNL11      -0.0143
     14 C          -0.0579    2.2031    0.3189 C.ar    1  UNL11       0.0234
     15 C           0.8858    3.0639    0.8097 C.ar    1  UNL11      -0.0059
     16 C           0.5450    4.2918    1.3913 C.ar    1  UNL11       0.1611
     17 O           1.5888    5.0757    1.8536 O.3     1  UNL11      -0.5032
     18 C          -0.7768    4.6321    1.4650 C.ar    1  UNL11       0.1846
     19 O          -1.1495    5.8349    2.0322 O.3     1  UNL11      -0.5019
     20 C          -1.7505    3.7961    0.9836 C.ar    1  UNL11       0.1170
     21 N          -3.1396    4.1700    1.0717 N.4     1  UNL11      -0.2014
     22 O          -3.2040    5.3828    1.6671 O.3     1  UNL11      -0.2807
     23 F          -3.7732    3.2280    1.7764 F       1  UNL11      -0.0963
     24 C          -1.3868    2.5967    0.4179 C.ar    1  UNL11      -0.0215
     25 H          -0.1536   -0.3118   -2.0354 H       1  UNL11       0.0394
     26 H          -1.1099    1.1536   -1.9705 H       1  UNL11       0.0394
     27 H          -0.5472   -2.2220   -0.7730 H       1  UNL11       0.0621
     28 H          -2.1252   -3.6280    0.5160 H       1  UNL11       0.0618
     29 H          -4.1486   -2.6686    1.3782 H       1  UNL11       0.0624
     30 H          -5.6277   -0.7710    1.6506 H       1  UNL11       0.0624
     31 H          -6.1415    1.5689    1.2365 H       1  UNL11       0.0618
     32 H          -4.6328    2.9661   -0.0175 H       1  UNL11       0.0618
     33 H          -2.5587    2.0145   -0.9017 H       1  UNL11       0.0624
     34 H           1.9223    2.7937    0.7501 H       1  UNL11       0.0662
     35 H           1.4139    5.9616    2.2805 H       1  UNL11       0.2923
     36 H          -0.5239    6.5025    2.4080 H       1  UNL11       0.2924
     37 H          -3.5565    4.2269    0.1087 H       1  UNL11       0.2057
     38 H          -2.2074    1.9783    0.0530 H       1  UNL11       0.0647
     39 H          -2.8187    5.3277    2.5556 H       1  UNL11       0.2449
@<TRIPOS>BOND
     1     1     2    2
     2     2     3    1
     3     2    14    1
     4     3     4    1
     5     3    25    1
     6     3    26    1
     7     4     5   ar
     8     5     6   ar
     9     5    27    1
    10     6     7   ar
    11     6    28    1
    12     7     8   ar
    13     7    29    1
    14     8     9   ar
    15     9    10   ar
    16     9    30    1
    17    10    11   ar
    18    10    31    1
    19    11    12   ar
    20    11    32    1
    21    12    13   ar
    22    12    33    1
    23    13     4   ar
    24    13     8   ar
    25    14    15   ar
    26    15    16   ar
    27    15    34    1
    28    16    17    1
    29    16    18   ar
    30    17    35    1
    31    18    19    1
    32    18    20   ar
    33    19    36    1
    34    20    21    1
    35    20    24   ar
    36    21    22    1
    37    21    23    1
    38    21    37    1
    39    24    14   ar
    40    24    38    1
    41    22    39    1
@<TRIPOS>MOLECULE
*****
 39 41 0 0 0
SMALL
GASTEIGER

@<TRIPOS>ATOM
      1 O           0.3564    2.1594   -0.1571 O.2     1  UNL11      -0.2917
      2 C           0.2110    0.9103   -0.2824 C.2     1  UNL11       0.1676
      3 C          -0.6826    0.3428   -1.3314 C.3     1  UNL11       0.0362
      4 C          -1.7070   -0.4343   -0.6277 C.ar    1  UNL11      -0.0322
      5 C          -2.8772    0.2146   -0.2547 C.ar    1  UNL11      -0.0576
      6 C          -3.9224   -0.4380    0.3450 C.ar    1  UNL11      -0.0609
      7 C          -3.8065   -1.7836    0.5848 C.ar    1  UNL11      -0.0540
      8 C          -2.6596   -2.4696    0.2321 C.ar    1  UNL11      -0.0176
      9 C          -2.5820   -3.8047    0.5033 C.ar    1  UNL11      -0.0540
     10 C          -1.4210   -4.4875    0.1627 C.ar    1  UNL11      -0.0612
     11 C          -0.3907   -3.8252   -0.4286 C.ar    1  UNL11      -0.0612
     12 C          -0.5017   -2.4820   -0.6877 C.ar    1  UNL11      -0.0538
     13 C          -1.6200   -1.7740   -0.3732 C.ar    1  UNL11      -0.0143
     14 C           0.9415    0.0519    0.6313 C.ar    1  UNL11       0.0234
     15 C           2.1467    0.3472    1.2083 C.ar    1  UNL11      -0.0059
     16 C           2.7986   -0.5431    2.0711 C.ar    1  UNL11       0.1611
     17 O           4.0145   -0.1322    2.5913 O.3     1  UNL11      -0.5032
     18 C           2.2020   -1.7433    2.3397 C.ar    1  UNL11       0.1846
     19 O           2.8162   -2.6456    3.1857 O.3     1  UNL11      -0.5019
     20 C           0.9949   -2.0740    1.7810 C.ar    1  UNL11       0.1170
     21 N           0.3814   -3.3449    2.0735 N.4     1  UNL11      -0.2014
     22 O          -0.3438   -3.7121    0.9923 O.3     1  UNL11      -0.2807
     23 F          -0.3785   -3.1919    3.1620 F       1  UNL11      -0.0963
     24 C           0.3778   -1.1806    0.9373 C.ar    1  UNL11      -0.0215
     25 H          -0.1536   -0.3118   -2.0354 H       1  UNL11       0.0394
     26 H          -1.1099    1.1536   -1.9705 H       1  UNL11       0.0394
     27 H          -2.9725    1.2761   -0.4406 H       1  UNL11       0.0621
     28 H          -4.8428    0.0644    0.6374 H       1  UNL11       0.0618
     29 H          -4.6524   -2.2893    1.0636 H       1  UNL11       0.0624
     30 H          -3.3819   -4.3484    0.9694 H       1  UNL11       0.0624
     31 H          -1.3472   -5.5361    0.3697 H       1  UNL11       0.0618
     32 H           0.4949   -4.3896   -0.6758 H       1  UNL11       0.0618
     33 H           0.3238   -1.9906   -1.1284 H       1  UNL11       0.0624
     34 H           2.6120    1.2900    0.9954 H       1  UNL11       0.0662
     35 H           4.5316   -0.7206    3.2111 H       1  UNL11       0.2923
     36 H           3.6856   -2.5007    3.6347 H       1  UNL11       0.2924
     37 H           1.1231   -4.0651    2.2624 H       1  UNL11       0.2057
     38 H          -0.5800   -1.5024    0.5272 H       1  UNL11       0.0647
     39 H          -1.0275   -3.0460    0.8201 H       1  UNL11       0.2449
@<TRIPOS>BOND
     1     1     2    2
     2     2     3    1
     3     2    14    1
     4     3     4    1
     5     3    25    1
     6     3    26    1
     7     4     5   ar
     8     5     6   ar
     9     5    27    1
    10     6     7   ar
    11     6    28    1
    12     7     8   ar
    13     7    29    1
    14     8     9   ar
    15     9    10   ar
    16     9    30    1
    17    10    11   ar
    18    10    31    1
    19    11    12   ar
    20    11    32    1
    21    12    13   ar
    22    12    33    1
    23    13     4   ar
    24    13     8   ar
    25    14    15   ar
    26    15    16   ar
    27    15    34    1
    28    16    17    1
    29    16    18   ar
    30    17    35    1
    31    18    19    1
    32    18    20   ar
    33    19    36    1
    34    20    21    1
    35    20    24   ar
    36    21    22    1
    37    21    23    1
    38    21    37    1
    39    24    14   ar
    40    24    38    1
    41    22    39    1
@<TRIPOS>MOLECULE
*****
 39 41 0 0 0
SMALL
GASTEIGER

@<TRIPOS>ATOM
      1 O           1.4344    1.1248   -0.5157 O.2     1  UNL11      -0.2917
      2 C           0.2110    0.9103   -0.2824 C.2     1  UNL11       0.1676
      3 C          -0.6826    0.3428   -1.3314 C.3     1  UNL11       0.0362
      4 C          -1.7070   -0.4343   -0.6277 C.ar    1  UNL11      -0.0322
      5 C          -2.5318    0.2333    0.2687 C.ar    1  UNL11      -0.0576
      6 C          -3.5627   -0.3877    0.9241 C.ar    1  UNL11      -0.0609
      7 C          -3.7871   -1.7195    0.6840 C.ar    1  UNL11      -0.0540
      8 C          -2.9901   -2.4239   -0.1987 C.ar    1  UNL11      -0.0176
      9 C          -3.2404   -3.7508   -0.3956 C.ar    1  UNL11      -0.0540
     10 C          -2.4268   -4.4597   -1.2706 C.ar    1  UNL11      -0.0612
     11 C          -1.4051   -3.8302   -1.9109 C.ar    1  UNL11      -0.0612
     12 C          -1.1811   -2.4943   -1.6904 C.ar    1  UNL11      -0.0538
     13 C          -1.9534   -1.7609   -0.8440 C.ar    1  UNL11      -0.0143
     14 C          -0.2905    1.2383    1.0391 C.ar    1  UNL11       0.0234
     15 C           0.4498    1.7635    2.0631 C.ar    1  UNL11      -0.0059
     16 C          -0.1051    2.0396    3.3192 C.ar    1  UNL11       0.1611
     17 O           0.7455    2.5680    4.2758 O.3     1  UNL11      -0.5032
     18 C          -1.4309    1.7729    3.5178 C.ar    1  UNL11       0.1846
     19 O          -2.0114    2.0324    4.7437 O.3     1  UNL11      -0.5019
     20 C          -2.2045    1.2473    2.5158 C.ar    1  UNL11       0.1170
     21 N          -3.6004    0.9701    2.7434 N.4     1  UNL11      -0.2014
     22 O          -4.0513    1.8503    3.6661 O.3     1  UNL11      -0.2807
     23 F          -3.7038   -0.2951    3.1607 F       1  UNL11      -0.0963
     24 C          -1.6331    0.9860    1.2927 C.ar    1  UNL11      -0.0215
     25 H          -0.1536   -0.3118   -2.0354 H       1  UNL11       0.0394
     26 H          -1.1099    1.1536   -1.9705 H       1  UNL11       0.0394
     27 H          -2.3578    1.2833    0.4623 H       1  UNL11       0.0621
     28 H          -4.2140    0.1305    1.6258 H       1  UNL11       0.0618
     29 H          -4.6164   -2.1992    1.2155 H       1  UNL11       0.0624
     30 H          -4.0404   -4.2688    0.0986 H       1  UNL11       0.0624
     31 H          -2.6125   -5.5020   -1.4347 H       1  UNL11       0.0618
     32 H          -0.7942   -4.4152   -2.5807 H       1  UNL11       0.0618
     33 H          -0.3666   -2.0381   -2.1860 H       1  UNL11       0.0624
     34 H           1.4900    1.9717    1.9038 H       1  UNL11       0.0662
     35 H           0.4135    2.7855    5.1925 H       1  UNL11       0.2923
     36 H          -1.5383    2.4081    5.5269 H       1  UNL11       0.2924
     37 H          -4.1392    1.0891    1.8490 H       1  UNL11       0.2057
     38 H          -2.3016    0.5703    0.5380 H       1  UNL11       0.0647
     39 H          -3.5526    1.7385    4.4905 H       1  UNL11       0.2449
@<TRIPOS>BOND
     1     1     2    2
     2     2     3    1
     3     2    14    1
     4     3     4    1
     5     3    25    1
     6     3    26    1
     7     4     5   ar
     8     5     6   ar
     9     5    27    1
    10     6     7   ar
    11     6    28    1
    12     7     8   ar
    13     7    29    1
    14     8     9   ar
    15     9    10   ar
    16     9    30    1
    17    10    11   ar
    18    10    31    1
    19    11    12   ar
    20    11    32    1
    21    12    13   ar
    22    12    33    1
    23    13     4   ar
    24    13     8   ar
    25    14    15   ar
    26    15    16   ar
    27    15    34    1
    28    16    17    1
    29    16    18   ar
    30    17    35    1
    31    18    19    1
    32    18    20   ar
    33    19    36    1
    34    20    21    1
    35    20    24   ar
    36    21    22    1
    37    21    23    1
    38    21    37    1
    39    24    14   ar
    40    24    38    1
    41    22    39    1
@<TRIPOS>MOLECULE
*****
 39 41 0 0 0
SMALL
GASTEIGER

@<TRIPOS>ATOM
      1 O           1.2330    0.2805    0.1127 O.2     1  UNL11      -0.2917
      2 C           0.2110    0.9103   -0.2824 C.2     1  UNL11       0.1676
      3 C          -0.6826    0.3428   -1.3314 C.3     1  UNL11       0.0362
      4 C          -1.7070   -0.4343   -0.6277 C.ar    1  UNL11      -0.0322
      5 C          -2.0685   -0.0310    0.6514 C.ar    1  UNL11      -0.0576
      6 C          -3.0628   -0.6476    1.3649 C.ar    1  UNL11      -0.0609
      7 C          -3.7255   -1.7031    0.7918 C.ar    1  UNL11      -0.0540
      8 C          -3.3978   -2.1395   -0.4781 C.ar    1  UNL11      -0.0176
      9 C          -4.0732   -3.2028   -1.0029 C.ar    1  UNL11      -0.0540
     10 C          -3.7298   -3.6495   -2.2727 C.ar    1  UNL11      -0.0612
     11 C          -2.7381   -3.0295   -2.9670 C.ar    1  UNL11      -0.0612
     12 C          -2.0789   -1.9624   -2.4099 C.ar    1  UNL11      -0.0538
     13 C          -2.3831   -1.4903   -1.1708 C.ar    1  UNL11      -0.0143
     14 C          -0.0579    2.2031    0.3189 C.ar    1  UNL11       0.0234
     15 C           0.8858    3.0639    0.8097 C.ar    1  UNL11      -0.0059
     16 C           0.5450    4.2918    1.3913 C.ar    1  UNL11       0.1611
     17 O           1.5888    5.0757    1.8536 O.3     1  UNL11      -0.5032
     18 C          -0.7768    4.6321    1.4650 C.ar    1  UNL11       0.1846
     19 O          -1.1495    5.8349    2.0322 O.3     1  UNL11      -0.5019
     20 C          -1.7505    3.7961    0.9836 C.ar    1  UNL11       0.1170
     21 N          -3.1396    4.1700    1.0717 N.4     1  UNL11      -0.2014
     22 O          -3.2040    5.3828    1.6671 O.3     1  UNL11      -0.2807
     23 F          -3.7732    3.2280    1.7764 F       1  UNL11      -0.0963
     24 C          -1.3868    2.5967    0.4179 C.ar    1  UNL11      -0.0215
     25 H          -0.1536   -0.3118   -2.0354 H       1  UNL11       0.0394
     26 H          -1.1099    1.1536   -1.9705 H       1  UNL11       0.0394
     27 H          -1.5477    0.8001    1.1080 H       1  UNL11       0.0621
     28 H          -3.3522   -0.3347    2.3666 H       1  UNL11       0.0618
     29 H          -4.5184   -2.1831    1.3760 H       1  UNL11       0.0624
     30 H          -4.8590   -3.7080   -0.4737 H       1  UNL11       0.0624
     31 H          -4.2524   -4.4831   -2.6967 H       1  UNL11       0.0618
     32 H          -2.4989   -3.4070   -3.9490 H       1  UNL11       0.0618
     33 H          -1.2986   -1.5149   -2.9649 H       1  UNL11       0.0624
     34 H           1.9223    2.7937    0.7501 H       1  UNL11       0.0662
     35 H           1.4139    5.9616    2.2805 H       1  UNL11       0.2923
     36 H          -0.5239    6.5025    2.4080 H       1  UNL11       0.2924
     37 H          -3.5565    4.2269    0.1087 H       1  UNL11       0.2057
     38 H          -2.2074    1.9783    0.0530 H       1  UNL11       0.0647
     39 H          -2.8187    5.3277    2.5556 H       1  UNL11       0.2449
@<TRIPOS>BOND
     1     1     2    2
     2     2     3    1
     3     2    14    1
     4     3     4    1
     5     3    25    1
     6     3    26    1
     7     4     5   ar
     8     5     6   ar
     9     5    27    1
    10     6     7   ar
    11     6    28    1
    12     7     8   ar
    13     7    29    1
    14     8     9   ar
    15     9    10   ar
    16     9    30    1
    17    10    11   ar
    18    10    31    1
    19    11    12   ar
    20    11    32    1
    21    12    13   ar
    22    12    33    1
    23    13     4   ar
    24    13     8   ar
    25    14    15   ar
    26    15    16   ar
    27    15    34    1
    28    16    17    1
    29    16    18   ar
    30    17    35    1
    31    18    19    1
    32    18    20   ar
    33    19    36    1
    34    20    21    1
    35    20    24   ar
    36    21    22    1
    37    21    23    1
    38    21    37    1
    39    24    14   ar
    40    24    38    1
    41    22    39    1
@<TRIPOS>MOLECULE
*****
 39 41 0 0 0
SMALL
GASTEIGER

@<TRIPOS>ATOM
      1 O          -0.2286    1.1793    0.8715 O.2     1  UNL11      -0.2917
      2 C           0.2110    0.9103   -0.2824 C.2     1  UNL11       0.1676
      3 C          -0.6826    0.3428   -1.3314 C.3     1  UNL11       0.0362
      4 C          -1.7070   -0.4343   -0.6277 C.ar    1  UNL11      -0.0322
      5 C          -1.4557   -1.7791   -0.3870 C.ar    1  UNL11      -0.0576
      6 C          -2.3176   -2.5742    0.3221 C.ar    1  UNL11      -0.0609
      7 C          -3.4720   -2.0185    0.8124 C.ar    1  UNL11      -0.0540
      8 C          -3.7637   -0.6850    0.5954 C.ar    1  UNL11      -0.0176
      9 C          -4.9307   -0.1783    1.0888 C.ar    1  UNL11      -0.0540
     10 C          -5.2287    1.1582    0.8544 C.ar    1  UNL11      -0.0612
     11 C          -4.3649    1.9337    0.1456 C.ar    1  UNL11      -0.0612
     12 C          -3.1995    1.3925   -0.3363 C.ar    1  UNL11      -0.0538
     13 C          -2.8663    0.0899   -0.1292 C.ar    1  UNL11      -0.0143
     14 C           1.6137    1.1709   -0.5467 C.ar    1  UNL11       0.0234
     15 C           2.2525    0.9541   -1.7372 C.ar    1  UNL11      -0.0059
     16 C           3.6174    1.2174   -1.9101 C.ar    1  UNL11       0.1611
     17 O           4.1510    0.9555   -3.1609 O.3     1  UNL11      -0.5032
     18 C           4.3250    1.7078   -0.8484 C.ar    1  UNL11       0.1846
     19 O           5.6725    1.9786   -0.9827 O.3     1  UNL11      -0.5019
     20 C           3.7195    1.9383    0.3595 C.ar    1  UNL11       0.1170
     21 N           4.4815    2.4534    1.4690 N.4     1  UNL11      -0.2014
     22 O           5.7575    2.6195    1.0522 O.3     1  UNL11      -0.2807
     23 F           4.3889    1.5755    2.4721 F       1  UNL11      -0.0963
     24 C           2.3781    1.6705    0.5005 C.ar    1  UNL11      -0.0215
     25 H          -0.1536   -0.3118   -2.0354 H       1  UNL11       0.0394
     26 H          -1.1099    1.1536   -1.9705 H       1  UNL11       0.0394
     27 H          -0.5472   -2.2220   -0.7730 H       1  UNL11       0.0621
     28 H          -2.1252   -3.6280    0.5160 H       1  UNL11       0.0618
     29 H          -4.1486   -2.6686    1.3782 H       1  UNL11       0.0624
     30 H          -5.6277   -0.7710    1.6506 H       1  UNL11       0.0624
     31 H          -6.1415    1.5689    1.2365 H       1  UNL11       0.0618
     32 H          -4.6328    2.9661   -0.0175 H       1  UNL11       0.0618
     33 H          -2.5587    2.0145   -0.9017 H       1  UNL11       0.0624
     34 H           1.6941    0.5693   -2.5684 H       1  UNL11       0.0662
     35 H           5.1181    1.1193   -3.3498 H       1  UNL11       0.2923
     36 H           6.1982    1.8444   -1.8097 H       1  UNL11       0.2924
     37 H           4.0869    3.3781    1.7752 H       1  UNL11       0.2057
     38 H           1.9562    1.8765    1.4847 H       1  UNL11       0.0647
     39 H           6.1193    1.7649    0.7701 H       1  UNL11       0.2449
@<TRIPOS>BOND
     1     1     2    2
     2     2     3    1
     3     2    14    1
     4     3     4    1
     5     3    25    1
     6     3    26    1
     7     4     5   ar
     8     5     6   ar
     9     5    27    1
    10     6     7   ar
    11     6    28    1
    12     7     8   ar
    13     7    29    1
    14     8     9   ar
    15     9    10   ar
    16     9    30    1
    17    10    11   ar
    18    10    31    1
    19    11    12   ar
    20    11    32    1
    21    12    13   ar
    22    12    33    1
    23    13     4   ar
    24    13     8   ar
    25    14    15   ar
    26    15    16   ar
    27    15    34    1
    28    16    17    1
    29    16    18   ar
    30    17    35    1
    31    18    19    1
    32    18    20   ar
    33    19    36    1
    34    20    21    1
    35    20    24   ar
    36    21    22    1
    37    21    23    1
    38    21    37    1
    39    24    14   ar
    40    24    38    1
    41    22    39    1
@<TRIPOS>MOLECULE
*****
 39 41 0 0 0
SMALL
GASTEIGER

@<TRIPOS>ATOM
      1 O          -0.2437    1.6718    0.6179 O.2     1  UNL11      -0.2917
      2 C           0.2110    0.9103   -0.2824 C.2     1  UNL11       0.1676
      3 C          -0.6826    0.3428   -1.3314 C.3     1  UNL11       0.0362
      4 C          -1.7070   -0.4343   -0.6277 C.ar    1  UNL11      -0.0322
      5 C          -2.5318    0.2333    0.2687 C.ar    1  UNL11      -0.0576
      6 C          -3.5627   -0.3877    0.9241 C.ar    1  UNL11      -0.0609
      7 C          -3.7871   -1.7195    0.6840 C.ar    1  UNL11      -0.0540
      8 C          -2.9901   -2.4239   -0.1987 C.ar    1  UNL11      -0.0176
      9 C          -3.2404   -3.7508   -0.3956 C.ar    1  UNL11      -0.0540
     10 C          -2.4268   -4.4597   -1.2706 C.ar    1  UNL11      -0.0612
     11 C          -1.4051   -3.8302   -1.9109 C.ar    1  UNL11      -0.0612
     12 C          -1.1811   -2.4943   -1.6904 C.ar    1  UNL11      -0.0538
     13 C          -1.9534   -1.7609   -0.8440 C.ar    1  UNL11      -0.0143
     14 C           1.6298    0.6076   -0.2556 C.ar    1  UNL11       0.0234
     15 C           2.6099    1.4316    0.2270 C.ar    1  UNL11      -0.0059
     16 C           3.9639    1.0731    0.2041 C.ar    1  UNL11       0.1611
     17 O           4.8626    1.9920    0.7196 O.3     1  UNL11      -0.5032
     18 C           4.3063   -0.1424   -0.3188 C.ar    1  UNL11       0.1846
     19 O           5.6316   -0.5287   -0.3578 O.3     1  UNL11      -0.5019
     20 C           3.3525   -0.9948   -0.8111 C.ar    1  UNL11       0.1170
     21 N           3.7318   -2.2719   -1.3611 N.4     1  UNL11      -0.2014
     22 O           2.7123   -3.1341   -1.1448 O.3     1  UNL11      -0.2807
     23 F           4.8578   -2.6603   -0.7555 F       1  UNL11      -0.0963
     24 C           2.0309   -0.6167   -0.7760 C.ar    1  UNL11      -0.0215
     25 H          -0.1536   -0.3118   -2.0354 H       1  UNL11       0.0394
     26 H          -1.1099    1.1536   -1.9705 H       1  UNL11       0.0394
     27 H          -2.3578    1.2833    0.4623 H       1  UNL11       0.0621
     28 H          -4.2140    0.1305    1.6258 H       1  UNL11       0.0618
     29 H          -4.6164   -2.1992    1.2155 H       1  UNL11       0.0624
     30 H          -4.0404   -4.2688    0.0986 H       1  UNL11       0.0624
     31 H          -2.6125   -5.5020   -1.4347 H       1  UNL11       0.0618
     32 H          -0.7942   -4.4152   -2.5807 H       1  UNL11       0.0618
     33 H          -0.3666   -2.0381   -2.1860 H       1  UNL11       0.0624
     34 H           2.3376    2.3848    0.6369 H       1  UNL11       0.0662
     35 H           5.8425    1.7990    0.7313 H       1  UNL11       0.2923
     36 H           6.3905    0.0147   -0.0303 H       1  UNL11       0.2924
     37 H           3.9032   -2.1798   -2.3939 H       1  UNL11       0.2057
     38 H           1.3218   -1.3392   -1.1812 H       1  UNL11       0.0647
     39 H           2.5561   -3.2173   -0.1911 H       1  UNL11       0.2449
@<TRIPOS>BOND
     1     1     2    2
     2     2     3    1
     3     2    14    1
     4     3     4    1
     5     3    25    1
     6     3    26    1
     7     4     5   ar
     8     5     6   ar
     9     5    27    1
    10     6     7   ar
    11     6    28    1
    12     7     8   ar
    13     7    29    1
    14     8     9   ar
    15     9    10   ar
    16     9    30    1
    17    10    11   ar
    18    10    31    1
    19    11    12   ar
    20    11    32    1
    21    12    13   ar
    22    12    33    1
    23    13     4   ar
    24    13     8   ar
    25    14    15   ar
    26    15    16   ar
    27    15    34    1
    28    16    17    1
    29    16    18   ar
    30    17    35    1
    31    18    19    1
    32    18    20   ar
    33    19    36    1
    34    20    21    1
    35    20    24   ar
    36    21    22    1
    37    21    23    1
    38    21    37    1
    39    24    14   ar
    40    24    38    1
    41    22    39    1
@<TRIPOS>MOLECULE
*****
 39 41 0 0 0
SMALL
GASTEIGER

@<TRIPOS>ATOM
      1 O          -0.0228    2.0418    0.2296 O.2     1  UNL11      -0.2917
      2 C           0.2110    0.9103   -0.2824 C.2     1  UNL11       0.1676
      3 C          -0.6826    0.3428   -1.3314 C.3     1  UNL11       0.0362
      4 C          -1.7070   -0.4343   -0.6277 C.ar    1  UNL11      -0.0322
      5 C          -3.0357   -0.0646   -0.7937 C.ar    1  UNL11      -0.0576
      6 C          -4.0711   -0.7673   -0.2353 C.ar    1  UNL11      -0.0609
      7 C          -3.7822   -1.8783    0.5157 C.ar    1  UNL11      -0.0540
      8 C          -2.4744   -2.2819    0.7089 C.ar    1  UNL11      -0.0176
      9 C          -2.2328   -3.3844    1.4758 C.ar    1  UNL11      -0.0540
     10 C          -0.9162   -3.7774    1.6818 C.ar    1  UNL11      -0.0612
     11 C           0.1009   -3.0674    1.1240 C.ar    1  UNL11      -0.0612
     12 C          -0.1770   -1.9633    0.3576 C.ar    1  UNL11      -0.0538
     13 C          -1.4506   -1.5436    0.1279 C.ar    1  UNL11      -0.0143
     14 C           1.3761    0.1852    0.1890 C.ar    1  UNL11       0.0234
     15 C           2.1244   -0.6870   -0.5537 C.ar    1  UNL11      -0.0059
     16 C           3.2299   -1.3624   -0.0210 C.ar    1  UNL11       0.1611
     17 O           3.9069   -2.2210   -0.8707 O.3     1  UNL11      -0.5032
     18 C           3.5641   -1.1346    1.2847 C.ar    1  UNL11       0.1846
     19 O           4.6478   -1.7834    1.8433 O.3     1  UNL11      -0.5019
     20 C           2.8387   -0.2676    2.0598 C.ar    1  UNL11       0.1170
     21 N           3.2039   -0.0412    3.4354 N.4     1  UNL11      -0.2014
     22 O           4.2894   -0.8019    3.7053 O.3     1  UNL11      -0.2807
     23 F           2.1561   -0.3699    4.1967 F       1  UNL11      -0.0963
     24 C           1.7581    0.3815    1.5104 C.ar    1  UNL11      -0.0215
     25 H          -0.1536   -0.3118   -2.0354 H       1  UNL11       0.0394
     26 H          -1.1099    1.1536   -1.9705 H       1  UNL11       0.0394
     27 H          -3.2683    0.8116   -1.3840 H       1  UNL11       0.0621
     28 H          -5.1144   -0.4841   -0.3637 H       1  UNL11       0.0618
     29 H          -4.6225   -2.4287    0.9532 H       1  UNL11       0.0624
     30 H          -3.0191   -3.9601    1.9264 H       1  UNL11       0.0624
     31 H          -0.7125   -4.6415    2.2815 H       1  UNL11       0.0618
     32 H           1.1096   -3.4027    1.3089 H       1  UNL11       0.0618
     33 H           0.6353   -1.4198   -0.0447 H       1  UNL11       0.0624
     34 H           1.8594   -0.8632   -1.5782 H       1  UNL11       0.0662
     35 H           4.7025   -2.7346   -0.5527 H       1  UNL11       0.2923
     36 H           5.2302   -2.4265    1.3684 H       1  UNL11       0.2924
     37 H           3.4384    0.9728    3.5811 H       1  UNL11       0.2057
     38 H           1.2241    1.0584    2.1780 H       1  UNL11       0.0647
     39 H           4.0705   -1.7372    3.5701 H       1  UNL11       0.2449
@<TRIPOS>BOND
     1     1     2    2
     2     2     3    1
     3     2    14    1
     4     3     4    1
     5     3    25    1
     6     3    26    1
     7     4     5   ar
     8     5     6   ar
     9     5    27    1
    10     6     7   ar
    11     6    28    1
    12     7     8   ar
    13     7    29    1
    14     8     9   ar
    15     9    10   ar
    16     9    30    1
    17    10    11   ar
    18    10    31    1
    19    11    12   ar
    20    11    32    1
    21    12    13   ar
    22    12    33    1
    23    13     4   ar
    24    13     8   ar
    25    14    15   ar
    26    15    16   ar
    27    15    34    1
    28    16    17    1
    29    16    18   ar
    30    17    35    1
    31    18    19    1
    32    18    20   ar
    33    19    36    1
    34    20    21    1
    35    20    24   ar
    36    21    22    1
    37    21    23    1
    38    21    37    1
    39    24    14   ar
    40    24    38    1
    41    22    39    1
@<TRIPOS>MOLECULE
*****
 39 41 0 0 0
SMALL
GASTEIGER

@<TRIPOS>ATOM
      1 O          -0.0228    2.0418    0.2296 O.2     1  UNL11      -0.2917
      2 C           0.2110    0.9103   -0.2824 C.2     1  UNL11       0.1676
      3 C          -0.6826    0.3428   -1.3314 C.3     1  UNL11       0.0362
      4 C          -1.7070   -0.4343   -0.6277 C.ar    1  UNL11      -0.0322
      5 C          -2.0685   -0.0310    0.6514 C.ar    1  UNL11      -0.0576
      6 C          -3.0628   -0.6476    1.3649 C.ar    1  UNL11      -0.0609
      7 C          -3.7255   -1.7031    0.7918 C.ar    1  UNL11      -0.0540
      8 C          -3.3978   -2.1395   -0.4781 C.ar    1  UNL11      -0.0176
      9 C          -4.0732   -3.2028   -1.0029 C.ar    1  UNL11      -0.0540
     10 C          -3.7298   -3.6495   -2.2727 C.ar    1  UNL11      -0.0612
     11 C          -2.7381   -3.0295   -2.9670 C.ar    1  UNL11      -0.0612
     12 C          -2.0789   -1.9624   -2.4099 C.ar    1  UNL11      -0.0538
     13 C          -2.3831   -1.4903   -1.1708 C.ar    1  UNL11      -0.0143
     14 C           1.3761    0.1852    0.1890 C.ar    1  UNL11       0.0234
     15 C           1.9132    0.2728    1.4445 C.ar    1  UNL11      -0.0059
     16 C           3.0526   -0.4501    1.8204 C.ar    1  UNL11       0.1611
     17 O           3.5030   -0.2765    3.1184 O.3     1  UNL11      -0.5032
     18 C           3.6389   -1.2678    0.8952 C.ar    1  UNL11       0.1846
     19 O           4.7638   -1.9952    1.2309 O.3     1  UNL11      -0.5019
     20 C           3.1292   -1.3818   -0.3720 C.ar    1  UNL11       0.1170
     21 N           3.7617   -2.2470   -1.3356 N.4     1  UNL11      -0.2014
     22 O           5.0812   -2.2973   -1.0424 O.3     1  UNL11      -0.2807
     23 F           3.5343   -1.7413   -2.5514 F       1  UNL11      -0.0963
     24 C           2.0097   -0.6601   -0.7134 C.ar    1  UNL11      -0.0215
     25 H          -0.1536   -0.3118   -2.0354 H       1  UNL11       0.0394
     26 H          -1.1099    1.1536   -1.9705 H       1  UNL11       0.0394
     27 H          -1.5477    0.8001    1.1080 H       1  UNL11       0.0621
     28 H          -3.3522   -0.3347    2.3666 H       1  UNL11       0.0618
     29 H          -4.5184   -2.1831    1.3760 H       1  UNL11       0.0624
     30 H          -4.8590   -3.7080   -0.4737 H       1  UNL11       0.0624
     31 H          -4.2524   -4.4831   -2.6967 H       1  UNL11       0.0618
     32 H          -2.4989   -3.4070   -3.9490 H       1  UNL11       0.0618
     33 H          -1.2986   -1.5149   -2.9649 H       1  UNL11       0.0624
     34 H           1.4504    0.9154    2.1682 H       1  UNL11       0.0662
     35 H           4.3114   -0.7611    3.4493 H       1  UNL11       0.2923
     36 H           5.2061   -1.9794    2.1154 H       1  UNL11       0.2924
     37 H           3.3495   -3.2119   -1.2748 H       1  UNL11       0.2057
     38 H           1.6534   -0.7959   -1.7351 H       1  UNL11       0.0647
     39 H           5.4592   -1.4058   -1.0992 H       1  UNL11       0.2449
@<TRIPOS>BOND
     1     1     2    2
     2     2     3    1
     3     2    14    1
     4     3     4    1
     5     3    25    1
     6     3    26    1
     7     4     5   ar
     8     5     6   ar
     9     5    27    1
    10     6     7   ar
    11     6    28    1
    12     7     8   ar
    13     7    29    1
    14     8     9   ar
    15     9    10   ar
    16     9    30    1
    17    10    11   ar
    18    10    31    1
    19    11    12   ar
    20    11    32    1
    21    12    13   ar
    22    12    33    1
    23    13     4   ar
    24    13     8   ar
    25    14    15   ar
    26    15    16   ar
    27    15    34    1
    28    16    17    1
    29    16    18   ar
    30    17    35    1
    31    18    19    1
    32    18    20   ar
    33    19    36    1
    34    20    21    1
    35    20    24   ar
    36    21    22    1
    37    21    23    1
    38    21    37    1
    39    24    14   ar
    40    24    38    1
    41    22    39    1
@<TRIPOS>MOLECULE
*****
 39 41 0 0 0
SMALL
GASTEIGER

@<TRIPOS>ATOM
      1 O           1.4440    0.6341   -0.2583 O.2     1  UNL11      -0.2917
      2 C           0.2110    0.9103   -0.2824 C.2     1  UNL11       0.1676
      3 C          -0.6826    0.3428   -1.3314 C.3     1  UNL11       0.0362
      4 C          -1.7070   -0.4343   -0.6277 C.ar    1  UNL11      -0.0322
      5 C          -2.2474   -1.5387   -1.2740 C.ar    1  UNL11      -0.0576
      6 C          -3.1590   -2.3690   -0.6763 C.ar    1  UNL11      -0.0609
      7 C          -3.5513   -2.0974    0.6098 C.ar    1  UNL11      -0.0540
      8 C          -3.0410   -1.0081    1.2906 C.ar    1  UNL11      -0.0176
      9 C          -3.4710   -0.7675    2.5632 C.ar    1  UNL11      -0.0540
     10 C          -2.9687    0.3379    3.2384 C.ar    1  UNL11      -0.0612
     11 C          -2.0672    1.1548    2.6304 C.ar    1  UNL11      -0.0612
     12 C          -1.6555    0.8839    1.3495 C.ar    1  UNL11      -0.0538
     13 C          -2.1193   -0.1879    0.6516 C.ar    1  UNL11      -0.0143
     14 C          -0.3004    1.7995    0.7438 C.ar    1  UNL11       0.0234
     15 C          -1.6040    2.1932    0.8777 C.ar    1  UNL11      -0.0059
     16 C          -2.0185    3.0693    1.8890 C.ar    1  UNL11       0.1611
     17 O          -3.3640    3.3957    1.9207 O.3     1  UNL11      -0.5032
     18 C          -1.0819    3.5397    2.7665 C.ar    1  UNL11       0.1846
     19 O          -1.4547    4.4053    3.7759 O.3     1  UNL11      -0.5019
     20 C           0.2332    3.1673    2.6644 C.ar    1  UNL11       0.1170
     21 N           1.2078    3.6749    3.5969 N.4     1  UNL11      -0.2014
     22 O           0.5650    4.4912    4.4629 O.3     1  UNL11      -0.2807
     23 F           2.1462    4.3200    2.8978 F       1  UNL11      -0.0963
     24 C           0.6117    2.3061    1.6615 C.ar    1  UNL11      -0.0215
     25 H          -0.1536   -0.3118   -2.0354 H       1  UNL11       0.0394
     26 H          -1.1099    1.1536   -1.9705 H       1  UNL11       0.0394
     27 H          -1.9420   -1.7561   -2.2889 H       1  UNL11       0.0621
     28 H          -3.5843   -3.2373   -1.1767 H       1  UNL11       0.0618
     29 H          -4.2797   -2.7726    1.0724 H       1  UNL11       0.0624
     30 H          -4.1818   -1.3978    3.0632 H       1  UNL11       0.0624
     31 H          -3.2976    0.5381    4.2382 H       1  UNL11       0.0618
     32 H          -1.7022    2.0043    3.1865 H       1  UNL11       0.0618
     33 H          -0.9705    1.5489    0.8960 H       1  UNL11       0.0624
     34 H          -2.3365    1.8220    0.1874 H       1  UNL11       0.0662
     35 H          -3.7242    4.0168    2.6151 H       1  UNL11       0.2923
     36 H          -2.3751    4.7330    3.9308 H       1  UNL11       0.2924
     37 H           1.6482    2.8787    4.1229 H       1  UNL11       0.2057
     38 H           1.6707    2.0476    1.6353 H       1  UNL11       0.0647
     39 H           0.1595    5.2251    3.9751 H       1  UNL11       0.2449
@<TRIPOS>BOND
     1     1     2    2
     2     2     3    1
     3     2    14    1
     4     3     4    1
     5     3    25    1
     6     3    26    1
     7     4     5   ar
     8     5     6   ar
     9     5    27    1
    10     6     7   ar
    11     6    28    1
    12     7     8   ar
    13     7    29    1
    14     8     9   ar
    15     9    10   ar
    16     9    30    1
    17    10    11   ar
    18    10    31    1
    19    11    12   ar
    20    11    32    1
    21    12    13   ar
    22    12    33    1
    23    13     4   ar
    24    13     8   ar
    25    14    15   ar
    26    15    16   ar
    27    15    34    1
    28    16    17    1
    29    16    18   ar
    30    17    35    1
    31    18    19    1
    32    18    20   ar
    33    19    36    1
    34    20    21    1
    35    20    24   ar
    36    21    22    1
    37    21    23    1
    38    21    37    1
    39    24    14   ar
    40    24    38    1
    41    22    39    1
@<TRIPOS>MOLECULE
*****
 39 41 0 0 0
SMALL
GASTEIGER

@<TRIPOS>ATOM
      1 O          -0.0228    2.0418    0.2296 O.2     1  UNL11      -0.2917
      2 C           0.2110    0.9103   -0.2824 C.2     1  UNL11       0.1676
      3 C          -0.6826    0.3428   -1.3314 C.3     1  UNL11       0.0362
      4 C          -1.7070   -0.4343   -0.6277 C.ar    1  UNL11      -0.0322
      5 C          -2.0685   -0.0310    0.6514 C.ar    1  UNL11      -0.0576
      6 C          -3.0628   -0.6476    1.3649 C.ar    1  UNL11      -0.0609
      7 C          -3.7255   -1.7031    0.7918 C.ar    1  UNL11      -0.0540
      8 C          -3.3978   -2.1395   -0.4781 C.ar    1  UNL11      -0.0176
      9 C          -4.0732   -3.2028   -1.0029 C.ar    1  UNL11      -0.0540
     10 C          -3.7298   -3.6495   -2.2727 C.ar    1  UNL11      -0.0612
     11 C          -2.7381   -3.0295   -2.9670 C.ar    1  UNL11      -0.0612
     12 C          -2.0789   -1.9624   -2.4099 C.ar    1  UNL11      -0.0538
     13 C          -2.3831   -1.4903   -1.1708 C.ar    1  UNL11      -0.0143
     14 C           1.3761    0.1852    0.1890 C.ar    1  UNL11       0.0234
     15 C           2.1244   -0.6870   -0.5537 C.ar    1  UNL11      -0.0059
     16 C           3.2299   -1.3624   -0.0210 C.ar    1  UNL11       0.1611
     17 O           3.9069   -2.2210   -0.8707 O.3     1  UNL11      -0.5032
     18 C           3.5641   -1.1346    1.2847 C.ar    1  UNL11       0.1846
     19 O           4.6478   -1.7834    1.8433 O.3     1  UNL11      -0.5019
     20 C           2.8387   -0.2676    2.0598 C.ar    1  UNL11       0.1170
     21 N           3.2039   -0.0412    3.4354 N.4     1  UNL11      -0.2014
     22 O           3.7809   -1.1725    3.9013 O.3     1  UNL11      -0.2807
     23 F           2.0925    0.2718    4.1080 F       1  UNL11      -0.0963
     24 C           1.7581    0.3815    1.5104 C.ar    1  UNL11      -0.0215
     25 H          -0.1536   -0.3118   -2.0354 H       1  UNL11       0.0394
     26 H          -1.1099    1.1536   -1.9705 H       1  UNL11       0.0394
     27 H          -1.5477    0.8001    1.1080 H       1  UNL11       0.0621
     28 H          -3.3522   -0.3347    2.3666 H       1  UNL11       0.0618
     29 H          -4.5184   -2.1831    1.3760 H       1  UNL11       0.0624
     30 H          -4.8590   -3.7080   -0.4737 H       1  UNL11       0.0624
     31 H          -4.2524   -4.4831   -2.6967 H       1  UNL11       0.0618
     32 H          -2.4989   -3.4070   -3.9490 H       1  UNL11       0.0618
     33 H          -1.2986   -1.5149   -2.9649 H       1  UNL11       0.0624
     34 H           1.8594   -0.8632   -1.5782 H       1  UNL11       0.0662
     35 H           4.7025   -2.7346   -0.5527 H       1  UNL11       0.2923
     36 H           5.2302   -2.4265    1.3684 H       1  UNL11       0.2924
     37 H           3.8871    0.7549    3.4978 H       1  UNL11       0.2057
     38 H           1.2241    1.0584    2.1780 H       1  UNL11       0.0647
     39 H           3.1485   -1.9057    3.8427 H       1  UNL11       0.2449
@<TRIPOS>BOND
     1     1     2    2
     2     2     3    1
     3     2    14    1
     4     3     4    1
     5     3    25    1
     6     3    26    1
     7     4     5   ar
     8     5     6   ar
     9     5    27    1
    10     6     7   ar
    11     6    28    1
    12     7     8   ar
    13     7    29    1
    14     8     9   ar
    15     9    10   ar
    16     9    30    1
    17    10    11   ar
    18    10    31    1
    19    11    12   ar
    20    11    32    1
    21    12    13   ar
    22    12    33    1
    23    13     4   ar
    24    13     8   ar
    25    14    15   ar
    26    15    16   ar
    27    15    34    1
    28    16    17    1
    29    16    18   ar
    30    17    35    1
    31    18    19    1
    32    18    20   ar
    33    19    36    1
    34    20    21    1
    35    20    24   ar
    36    21    22    1
    37    21    23    1
    38    21    37    1
    39    24    14   ar
    40    24    38    1
    41    22    39    1
@<TRIPOS>MOLECULE
*****
 39 41 0 0 0
SMALL
GASTEIGER

@<TRIPOS>ATOM
      1 O           1.2330    0.2805    0.1127 O.2     1  UNL11      -0.2917
      2 C           0.2110    0.9103   -0.2824 C.2     1  UNL11       0.1676
      3 C          -0.6826    0.3428   -1.3314 C.3     1  UNL11       0.0362
      4 C          -1.7070   -0.4343   -0.6277 C.ar    1  UNL11      -0.0322
      5 C          -3.0357   -0.0646   -0.7937 C.ar    1  UNL11      -0.0576
      6 C          -4.0711   -0.7673   -0.2353 C.ar    1  UNL11      -0.0609
      7 C          -3.7822   -1.8783    0.5157 C.ar    1  UNL11      -0.0540
      8 C          -2.4744   -2.2819    0.7089 C.ar    1  UNL11      -0.0176
      9 C          -2.2328   -3.3844    1.4758 C.ar    1  UNL11      -0.0540
     10 C          -0.9162   -3.7774    1.6818 C.ar    1  UNL11      -0.0612
     11 C           0.1009   -3.0674    1.1240 C.ar    1  UNL11      -0.0612
     12 C          -0.1770   -1.9633    0.3576 C.ar    1  UNL11      -0.0538
     13 C          -1.4506   -1.5436    0.1279 C.ar    1  UNL11      -0.0143
     14 C          -0.0579    2.2031    0.3189 C.ar    1  UNL11       0.0234
     15 C           0.8858    3.0639    0.8097 C.ar    1  UNL11      -0.0059
     16 C           0.5450    4.2918    1.3913 C.ar    1  UNL11       0.1611
     17 O           1.5888    5.0757    1.8536 O.3     1  UNL11      -0.5032
     18 C          -0.7768    4.6321    1.4650 C.ar    1  UNL11       0.1846
     19 O          -1.1495    5.8349    2.0322 O.3     1  UNL11      -0.5019
     20 C          -1.7505    3.7961    0.9836 C.ar    1  UNL11       0.1170
     21 N          -3.1396    4.1700    1.0717 N.4     1  UNL11      -0.2014
     22 O          -3.2874    4.9562    2.1624 O.3     1  UNL11      -0.2807
     23 F          -3.8609    3.0484    1.1570 F       1  UNL11      -0.0963
     24 C          -1.3868    2.5967    0.4179 C.ar    1  UNL11      -0.0215
     25 H          -0.1536   -0.3118   -2.0354 H       1  UNL11       0.0394
     26 H          -1.1099    1.1536   -1.9705 H       1  UNL11       0.0394
     27 H          -3.2683    0.8116   -1.3840 H       1  UNL11       0.0621
     28 H          -5.1144   -0.4841   -0.3637 H       1  UNL11       0.0618
     29 H          -4.6225   -2.4287    0.9532 H       1  UNL11       0.0624
     30 H          -3.0191   -3.9601    1.9264 H       1  UNL11       0.0624
     31 H          -0.7125   -4.6415    2.2815 H       1  UNL11       0.0618
     32 H           1.1096   -3.4027    1.3089 H       1  UNL11       0.0618
     33 H           0.6353   -1.4198   -0.0447 H       1  UNL11       0.0624
     34 H           1.9223    2.7937    0.7501 H       1  UNL11       0.0662
     35 H           1.4139    5.9616    2.2805 H       1  UNL11       0.2923
     36 H          -0.5239    6.5025    2.4080 H       1  UNL11       0.2924
     37 H          -3.4217    4.7034    0.2112 H       1  UNL11       0.2057
     38 H          -2.2074    1.9783    0.0530 H       1  UNL11       0.0647
     39 H          -3.0264    4.4617    2.9551 H       1  UNL11       0.2449
@<TRIPOS>BOND
     1     1     2    2
     2     2     3    1
     3     2    14    1
     4     3     4    1
     5     3    25    1
     6     3    26    1
     7     4     5   ar
     8     5     6   ar
     9     5    27    1
    10     6     7   ar
    11     6    28    1
    12     7     8   ar
    13     7    29    1
    14     8     9   ar
    15     9    10   ar
    16     9    30    1
    17    10    11   ar
    18    10    31    1
    19    11    12   ar
    20    11    32    1
    21    12    13   ar
    22    12    33    1
    23    13     4   ar
    24    13     8   ar
    25    14    15   ar
    26    15    16   ar
    27    15    34    1
    28    16    17    1
    29    16    18   ar
    30    17    35    1
    31    18    19    1
    32    18    20   ar
    33    19    36    1
    34    20    21    1
    35    20    24   ar
    36    21    22    1
    37    21    23    1
    38    21    37    1
    39    24    14   ar
    40    24    38    1
    41    22    39    1
@<TRIPOS>MOLECULE
*****
 39 41 0 0 0
SMALL
GASTEIGER

@<TRIPOS>ATOM
      1 O           1.2330    0.2805    0.1127 O.2     1  UNL11      -0.2917
      2 C           0.2110    0.9103   -0.2824 C.2     1  UNL11       0.1676
      3 C          -0.6826    0.3428   -1.3314 C.3     1  UNL11       0.0362
      4 C          -1.7070   -0.4343   -0.6277 C.ar    1  UNL11      -0.0322
      5 C          -3.0357   -0.0646   -0.7937 C.ar    1  UNL11      -0.0576
      6 C          -4.0711   -0.7673   -0.2353 C.ar    1  UNL11      -0.0609
      7 C          -3.7822   -1.8783    0.5157 C.ar    1  UNL11      -0.0540
      8 C          -2.4744   -2.2819    0.7089 C.ar    1  UNL11      -0.0176
      9 C          -2.2328   -3.3844    1.4758 C.ar    1  UNL11      -0.0540
     10 C          -0.9162   -3.7774    1.6818 C.ar    1  UNL11      -0.0612
     11 C           0.1009   -3.0674    1.1240 C.ar    1  UNL11      -0.0612
     12 C          -0.1770   -1.9633    0.3576 C.ar    1  UNL11      -0.0538
     13 C          -1.4506   -1.5436    0.1279 C.ar    1  UNL11      -0.0143
     14 C          -0.0579    2.2031    0.3189 C.ar    1  UNL11       0.0234
     15 C           0.7031    2.8055    1.2835 C.ar    1  UNL11      -0.0059
     16 C           0.3683    4.0523    1.8271 C.ar    1  UNL11       0.1611
     17 O           1.2155    4.5586    2.7986 O.3     1  UNL11      -0.5032
     18 C          -0.7572    4.6798    1.3712 C.ar    1  UNL11       0.1846
     19 O          -1.1179    5.9100    1.8848 O.3     1  UNL11      -0.5019
     20 C          -1.5440    4.1079    0.4056 C.ar    1  UNL11       0.1170
     21 N          -2.7287    4.7827   -0.0618 N.4     1  UNL11      -0.2014
     22 O          -3.3141    3.9935   -0.9913 O.3     1  UNL11      -0.2807
     23 F          -2.3559    5.9631   -0.5649 F       1  UNL11      -0.0963
     24 C          -1.1913    2.8829   -0.1100 C.ar    1  UNL11      -0.0215
     25 H          -0.1536   -0.3118   -2.0354 H       1  UNL11       0.0394
     26 H          -1.1099    1.1536   -1.9705 H       1  UNL11       0.0394
     27 H          -3.2683    0.8116   -1.3840 H       1  UNL11       0.0621
     28 H          -5.1144   -0.4841   -0.3637 H       1  UNL11       0.0618
     29 H          -4.6225   -2.4287    0.9532 H       1  UNL11       0.0624
     30 H          -3.0191   -3.9601    1.9264 H       1  UNL11       0.0624
     31 H          -0.7125   -4.6415    2.2815 H       1  UNL11       0.0618
     32 H           1.1096   -3.4027    1.3089 H       1  UNL11       0.0618
     33 H           0.6353   -1.4198   -0.0447 H       1  UNL11       0.0624
     34 H           1.5859    2.3103    1.6389 H       1  UNL11       0.0662
     35 H           1.0328    5.4417    3.2280 H       1  UNL11       0.2923
     36 H          -0.6184    6.4016    2.5828 H       1  UNL11       0.2924
     37 H          -3.3919    4.9368    0.7388 H       1  UNL11       0.2057
     38 H          -1.8571    2.4830   -0.8755 H       1  UNL11       0.0647
     39 H          -2.7001    3.8528   -1.7290 H       1  UNL11       0.2449
@<TRIPOS>BOND
     1     1     2    2
     2     2     3    1
     3     2    14    1
     4     3     4    1
     5     3    25    1
     6     3    26    1
     7     4     5   ar
     8     5     6   ar
     9     5    27    1
    10     6     7   ar
    11     6    28    1
    12     7     8   ar
    13     7    29    1
    14     8     9   ar
    15     9    10   ar
    16     9    30    1
    17    10    11   ar
    18    10    31    1
    19    11    12   ar
    20    11    32    1
    21    12    13   ar
    22    12    33    1
    23    13     4   ar
    24    13     8   ar
    25    14    15   ar
    26    15    16   ar
    27    15    34    1
    28    16    17    1
    29    16    18   ar
    30    17    35    1
    31    18    19    1
    32    18    20   ar
    33    19    36    1
    34    20    21    1
    35    20    24   ar
    36    21    22    1
    37    21    23    1
    38    21    37    1
    39    24    14   ar
    40    24    38    1
    41    22    39    1
@<TRIPOS>MOLECULE
*****
 39 41 0 0 0
SMALL
GASTEIGER

@<TRIPOS>ATOM
      1 O           0.7998    2.0149   -0.4566 O.2     1  UNL11      -0.2917
      2 C           0.2110    0.9103   -0.2824 C.2     1  UNL11       0.1676
      3 C          -0.6826    0.3428   -1.3314 C.3     1  UNL11       0.0362
      4 C          -1.7070   -0.4343   -0.6277 C.ar    1  UNL11      -0.0322
      5 C          -1.4557   -1.7791   -0.3870 C.ar    1  UNL11      -0.0576
      6 C          -2.3176   -2.5742    0.3221 C.ar    1  UNL11      -0.0609
      7 C          -3.4720   -2.0185    0.8124 C.ar    1  UNL11      -0.0540
      8 C          -3.7637   -0.6850    0.5954 C.ar    1  UNL11      -0.0176
      9 C          -4.9307   -0.1783    1.0888 C.ar    1  UNL11      -0.0540
     10 C          -5.2287    1.1582    0.8544 C.ar    1  UNL11      -0.0612
     11 C          -4.3649    1.9337    0.1456 C.ar    1  UNL11      -0.0612
     12 C          -3.1995    1.3925   -0.3363 C.ar    1  UNL11      -0.0538
     13 C          -2.8663    0.0899   -0.1292 C.ar    1  UNL11      -0.0143
     14 C           0.4341    0.2186    0.9734 C.ar    1  UNL11       0.0234
     15 C           0.4123   -1.1383    1.1489 C.ar    1  UNL11      -0.0059
     16 C           0.6228   -1.7321    2.4000 C.ar    1  UNL11       0.1611
     17 O           0.5747   -3.1151    2.4516 O.3     1  UNL11      -0.5032
     18 C           0.8577   -0.9202    3.4742 C.ar    1  UNL11       0.1846
     19 O           1.0691   -1.4710    4.7229 O.3     1  UNL11      -0.5019
     20 C           0.8875    0.4433    3.3373 C.ar    1  UNL11       0.1170
     21 N           1.1343    1.2844    4.4813 N.4     1  UNL11      -0.2014
     22 O           1.3016    0.4808    5.5565 O.3     1  UNL11      -0.2807
     23 F           0.0872    2.1027    4.6214 F       1  UNL11      -0.0963
     24 C           0.6774    0.9987    2.0971 C.ar    1  UNL11      -0.0215
     25 H          -0.1536   -0.3118   -2.0354 H       1  UNL11       0.0394
     26 H          -1.1099    1.1536   -1.9705 H       1  UNL11       0.0394
     27 H          -0.5472   -2.2220   -0.7730 H       1  UNL11       0.0621
     28 H          -2.1252   -3.6280    0.5160 H       1  UNL11       0.0618
     29 H          -4.1486   -2.6686    1.3782 H       1  UNL11       0.0624
     30 H          -5.6277   -0.7710    1.6506 H       1  UNL11       0.0624
     31 H          -6.1415    1.5689    1.2365 H       1  UNL11       0.0618
     32 H          -4.6328    2.9661   -0.0175 H       1  UNL11       0.0618
     33 H          -2.5587    2.0145   -0.9017 H       1  UNL11       0.0624
     34 H           0.2279   -1.7726    0.3036 H       1  UNL11       0.0662
     35 H           0.7143   -3.6008    3.3133 H       1  UNL11       0.2923
     36 H           1.0653   -2.4396    4.9234 H       1  UNL11       0.2924
     37 H           2.0047    1.8526    4.3264 H       1  UNL11       0.2057
     38 H           0.7154    2.0877    2.0545 H       1  UNL11       0.0647
     39 H           0.4971   -0.0425    5.6973 H       1  UNL11       0.2449
@<TRIPOS>BOND
     1     1     2    2
     2     2     3    1
     3     2    14    1
     4     3     4    1
     5     3    25    1
     6     3    26    1
     7     4     5   ar
     8     5     6   ar
     9     5    27    1
    10     6     7   ar
    11     6    28    1
    12     7     8   ar
    13     7    29    1
    14     8     9   ar
    15     9    10   ar
    16     9    30    1
    17    10    11   ar
    18    10    31    1
    19    11    12   ar
    20    11    32    1
    21    12    13   ar
    22    12    33    1
    23    13     4   ar
    24    13     8   ar
    25    14    15   ar
    26    15    16   ar
    27    15    34    1
    28    16    17    1
    29    16    18   ar
    30    17    35    1
    31    18    19    1
    32    18    20   ar
    33    19    36    1
    34    20    21    1
    35    20    24   ar
    36    21    22    1
    37    21    23    1
    38    21    37    1
    39    24    14   ar
    40    24    38    1
    41    22    39    1
@<TRIPOS>MOLECULE
*****
 39 41 0 0 0
SMALL
GASTEIGER

@<TRIPOS>ATOM
      1 O           1.4440    0.6341   -0.2583 O.2     1  UNL11      -0.2917
      2 C           0.2110    0.9103   -0.2824 C.2     1  UNL11       0.1676
      3 C          -0.6826    0.3428   -1.3314 C.3     1  UNL11       0.0362
      4 C          -1.7070   -0.4343   -0.6277 C.ar    1  UNL11      -0.0322
      5 C          -1.3653   -1.0172    0.5860 C.ar    1  UNL11      -0.0576
      6 C          -2.2689   -1.7043    1.3535 C.ar    1  UNL11      -0.0609
      7 C          -3.5600   -1.8193    0.9044 C.ar    1  UNL11      -0.0540
      8 C          -3.9440   -1.2568   -0.2984 C.ar    1  UNL11      -0.0176
      9 C          -5.2351   -1.4089   -0.7132 C.ar    1  UNL11      -0.0540
     10 C          -5.6133   -0.8567   -1.9306 C.ar    1  UNL11      -0.0612
     11 C          -4.7040   -0.1807   -2.6830 C.ar    1  UNL11      -0.0612
     12 C          -3.4134   -0.0458   -2.2361 C.ar    1  UNL11      -0.0538
     13 C          -2.9996   -0.5683   -1.0501 C.ar    1  UNL11      -0.0143
     14 C          -0.3004    1.7995    0.7438 C.ar    1  UNL11       0.0234
     15 C           0.2031    1.9258    2.0099 C.ar    1  UNL11      -0.0059
     16 C          -0.3572    2.7982    2.9518 C.ar    1  UNL11       0.1611
     17 O           0.2395    2.8366    4.2009 O.3     1  UNL11      -0.5032
     18 C          -1.4418    3.5440    2.5834 C.ar    1  UNL11       0.1846
     19 O          -2.0202    4.4143    3.4863 O.3     1  UNL11      -0.5019
     20 C          -1.9736    3.4450    1.3240 C.ar    1  UNL11       0.1170
     21 N          -3.1190    4.2374    0.9534 N.4     1  UNL11      -0.2014
     22 O          -3.0781    5.3835    1.6705 O.3     1  UNL11      -0.2807
     23 F          -4.2153    3.5189    1.2132 F       1  UNL11      -0.0963
     24 C          -1.4032    2.5802    0.4199 C.ar    1  UNL11      -0.0215
     25 H          -0.1536   -0.3118   -2.0354 H       1  UNL11       0.0394
     26 H          -1.1099    1.1536   -1.9705 H       1  UNL11       0.0394
     27 H          -0.3480   -0.9302    0.9436 H       1  UNL11       0.0621
     28 H          -2.0079   -2.1612    2.3065 H       1  UNL11       0.0618
     29 H          -4.2692   -2.3707    1.5316 H       1  UNL11       0.0624
     30 H          -5.9699   -1.9384   -0.1368 H       1  UNL11       0.0624
     31 H          -6.6240   -0.9685   -2.2679 H       1  UNL11       0.0618
     32 H          -5.0354    0.2316   -3.6233 H       1  UNL11       0.0618
     33 H          -2.7244    0.4663   -2.8528 H       1  UNL11       0.0624
     34 H           1.0545    1.3391    2.2957 H       1  UNL11       0.0662
     35 H          -0.1123    3.4357    4.9185 H       1  UNL11       0.2923
     36 H          -1.7119    4.5548    4.4156 H       1  UNL11       0.2924
     37 H          -3.0821    4.4615   -0.0727 H       1  UNL11       0.2057
     38 H          -1.8716    2.5490   -0.5644 H       1  UNL11       0.0647
     39 H          -3.1123    5.1741    2.6170 H       1  UNL11       0.2449
@<TRIPOS>BOND
     1     1     2    2
     2     2     3    1
     3     2    14    1
     4     3     4    1
     5     3    25    1
     6     3    26    1
     7     4     5   ar
     8     5     6   ar
     9     5    27    1
    10     6     7   ar
    11     6    28    1
    12     7     8   ar
    13     7    29    1
    14     8     9   ar
    15     9    10   ar
    16     9    30    1
    17    10    11   ar
    18    10    31    1
    19    11    12   ar
    20    11    32    1
    21    12    13   ar
    22    12    33    1
    23    13     4   ar
    24    13     8   ar
    25    14    15   ar
    26    15    16   ar
    27    15    34    1
    28    16    17    1
    29    16    18   ar
    30    17    35    1
    31    18    19    1
    32    18    20   ar
    33    19    36    1
    34    20    21    1
    35    20    24   ar
    36    21    22    1
    37    21    23    1
    38    21    37    1
    39    24    14   ar
    40    24    38    1
    41    22    39    1
@<TRIPOS>MOLECULE
*****
 39 41 0 0 0
SMALL
GASTEIGER

@<TRIPOS>ATOM
      1 O           0.3926    0.3080    0.8137 O.2     1  UNL11      -0.2917
      2 C           0.2110    0.9103   -0.2824 C.2     1  UNL11       0.1676
      3 C          -0.6826    0.3428   -1.3314 C.3     1  UNL11       0.0362
      4 C          -1.7070   -0.4343   -0.6277 C.ar    1  UNL11      -0.0322
      5 C          -1.4557   -1.7791   -0.3870 C.ar    1  UNL11      -0.0576
      6 C          -2.3176   -2.5742    0.3221 C.ar    1  UNL11      -0.0609
      7 C          -3.4720   -2.0185    0.8124 C.ar    1  UNL11      -0.0540
      8 C          -3.7637   -0.6850    0.5954 C.ar    1  UNL11      -0.0176
      9 C          -4.9307   -0.1783    1.0888 C.ar    1  UNL11      -0.0540
     10 C          -5.2287    1.1582    0.8544 C.ar    1  UNL11      -0.0612
     11 C          -4.3649    1.9337    0.1456 C.ar    1  UNL11      -0.0612
     12 C          -3.1995    1.3925   -0.3363 C.ar    1  UNL11      -0.0538
     13 C          -2.8663    0.0899   -0.1292 C.ar    1  UNL11      -0.0143
     14 C           0.9044    2.1691   -0.4824 C.ar    1  UNL11       0.0234
     15 C           1.7441    2.7665    0.4179 C.ar    1  UNL11      -0.0059
     16 C           2.3662    3.9940    0.1567 C.ar    1  UNL11       0.1611
     17 O           3.1929    4.4989    1.1464 O.3     1  UNL11      -0.5032
     18 C           2.1204    4.6064   -1.0403 C.ar    1  UNL11       0.1846
     19 O           2.7164    5.8176   -1.3315 O.3     1  UNL11      -0.5019
     20 C           1.2856    4.0383   -1.9672 C.ar    1  UNL11       0.1170
     21 N           1.0359    4.6992   -3.2234 N.4     1  UNL11      -0.2014
     22 O           1.1450    6.0317   -3.0182 O.3     1  UNL11      -0.2807
     23 F          -0.1873    4.3507   -3.6333 F       1  UNL11      -0.0963
     24 C           0.6883    2.8326   -1.6839 C.ar    1  UNL11      -0.0215
     25 H          -0.1536   -0.3118   -2.0354 H       1  UNL11       0.0394
     26 H          -1.1099    1.1536   -1.9705 H       1  UNL11       0.0394
     27 H          -0.5472   -2.2220   -0.7730 H       1  UNL11       0.0621
     28 H          -2.1252   -3.6280    0.5160 H       1  UNL11       0.0618
     29 H          -4.1486   -2.6686    1.3782 H       1  UNL11       0.0624
     30 H          -5.6277   -0.7710    1.6506 H       1  UNL11       0.0624
     31 H          -6.1415    1.5689    1.2365 H       1  UNL11       0.0618
     32 H          -4.6328    2.9661   -0.0175 H       1  UNL11       0.0618
     33 H          -2.5587    2.0145   -0.9017 H       1  UNL11       0.0624
     34 H           1.9349    2.2830    1.3563 H       1  UNL11       0.0662
     35 H           3.6649    5.3707    1.0242 H       1  UNL11       0.2923
     36 H           3.3303    6.3067   -0.7296 H       1  UNL11       0.2924
     37 H           1.7447    4.3925   -3.9361 H       1  UNL11       0.2057
     38 H           0.0373    2.4333   -2.4623 H       1  UNL11       0.0647
     39 H           0.4899    6.3122   -2.3602 H       1  UNL11       0.2449
@<TRIPOS>BOND
     1     1     2    2
     2     2     3    1
     3     2    14    1
     4     3     4    1
     5     3    25    1
     6     3    26    1
     7     4     5   ar
     8     5     6   ar
     9     5    27    1
    10     6     7   ar
    11     6    28    1
    12     7     8   ar
    13     7    29    1
    14     8     9   ar
    15     9    10   ar
    16     9    30    1
    17    10    11   ar
    18    10    31    1
    19    11    12   ar
    20    11    32    1
    21    12    13   ar
    22    12    33    1
    23    13     4   ar
    24    13     8   ar
    25    14    15   ar
    26    15    16   ar
    27    15    34    1
    28    16    17    1
    29    16    18   ar
    30    17    35    1
    31    18    19    1
    32    18    20   ar
    33    19    36    1
    34    20    21    1
    35    20    24   ar
    36    21    22    1
    37    21    23    1
    38    21    37    1
    39    24    14   ar
    40    24    38    1
    41    22    39    1
@<TRIPOS>MOLECULE
*****
 39 41 0 0 0
SMALL
GASTEIGER

@<TRIPOS>ATOM
      1 O           0.7998    2.0149   -0.4566 O.2     1  UNL11      -0.2917
      2 C           0.2110    0.9103   -0.2824 C.2     1  UNL11       0.1676
      3 C          -0.6826    0.3428   -1.3314 C.3     1  UNL11       0.0362
      4 C          -1.7070   -0.4343   -0.6277 C.ar    1  UNL11      -0.0322
      5 C          -1.4557   -1.7791   -0.3870 C.ar    1  UNL11      -0.0576
      6 C          -2.3176   -2.5742    0.3221 C.ar    1  UNL11      -0.0609
      7 C          -3.4720   -2.0185    0.8124 C.ar    1  UNL11      -0.0540
      8 C          -3.7637   -0.6850    0.5954 C.ar    1  UNL11      -0.0176
      9 C          -4.9307   -0.1783    1.0888 C.ar    1  UNL11      -0.0540
     10 C          -5.2287    1.1582    0.8544 C.ar    1  UNL11      -0.0612
     11 C          -4.3649    1.9337    0.1456 C.ar    1  UNL11      -0.0612
     12 C          -3.1995    1.3925   -0.3363 C.ar    1  UNL11      -0.0538
     13 C          -2.8663    0.0899   -0.1292 C.ar    1  UNL11      -0.0143
     14 C           0.4341    0.2186    0.9734 C.ar    1  UNL11       0.0234
     15 C           1.5731    0.2885    1.7286 C.ar    1  UNL11      -0.0059
     16 C           1.7189   -0.4234    2.9261 C.ar    1  UNL11       0.1611
     17 O           2.9189   -0.2730    3.6007 O.3     1  UNL11      -0.5032
     18 C           0.6828   -1.2102    3.3455 C.ar    1  UNL11       0.1846
     19 O           0.7918   -1.9265    4.5212 O.3     1  UNL11      -0.5019
     20 C          -0.4738   -1.3050    2.6161 C.ar    1  UNL11       0.1170
     21 N          -1.5553   -2.1414    3.0722 N.4     1  UNL11      -0.2014
     22 O          -2.5529   -2.0594    2.1624 O.3     1  UNL11      -0.2807
     23 F          -1.9333   -1.7017    4.2760 F       1  UNL11      -0.0963
     24 C          -0.5891   -0.5951    1.4442 C.ar    1  UNL11      -0.0215
     25 H          -0.1536   -0.3118   -2.0354 H       1  UNL11       0.0394
     26 H          -1.1099    1.1536   -1.9705 H       1  UNL11       0.0394
     27 H          -0.5472   -2.2220   -0.7730 H       1  UNL11       0.0621
     28 H          -2.1252   -3.6280    0.5160 H       1  UNL11       0.0618
     29 H          -4.1486   -2.6686    1.3782 H       1  UNL11       0.0624
     30 H          -5.6277   -0.7710    1.6506 H       1  UNL11       0.0624
     31 H          -6.1415    1.5689    1.2365 H       1  UNL11       0.0618
     32 H          -4.6328    2.9661   -0.0175 H       1  UNL11       0.0618
     33 H          -2.5587    2.0145   -0.9017 H       1  UNL11       0.0624
     34 H           2.3842    0.9072    1.3966 H       1  UNL11       0.0662
     35 H           3.0877   -0.7544    4.4594 H       1  UNL11       0.2923
     36 H           1.5833   -1.9256    5.1144 H       1  UNL11       0.2924
     37 H          -1.2290   -3.1374    3.1496 H       1  UNL11       0.2057
     38 H          -1.5336   -0.7120    0.9119 H       1  UNL11       0.0647
     39 H          -2.8522   -1.1394    2.0928 H       1  UNL11       0.2449
@<TRIPOS>BOND
     1     1     2    2
     2     2     3    1
     3     2    14    1
     4     3     4    1
     5     3    25    1
     6     3    26    1
     7     4     5   ar
     8     5     6   ar
     9     5    27    1
    10     6     7   ar
    11     6    28    1
    12     7     8   ar
    13     7    29    1
    14     8     9   ar
    15     9    10   ar
    16     9    30    1
    17    10    11   ar
    18    10    31    1
    19    11    12   ar
    20    11    32    1
    21    12    13   ar
    22    12    33    1
    23    13     4   ar
    24    13     8   ar
    25    14    15   ar
    26    15    16   ar
    27    15    34    1
    28    16    17    1
    29    16    18   ar
    30    17    35    1
    31    18    19    1
    32    18    20   ar
    33    19    36    1
    34    20    21    1
    35    20    24   ar
    36    21    22    1
    37    21    23    1
    38    21    37    1
    39    24    14   ar
    40    24    38    1
    41    22    39    1
@<TRIPOS>MOLECULE
*****
 39 41 0 0 0
SMALL
GASTEIGER

@<TRIPOS>ATOM
      1 O          -0.0228    2.0418    0.2296 O.2     1  UNL11      -0.2917
      2 C           0.2110    0.9103   -0.2824 C.2     1  UNL11       0.1676
      3 C          -0.6826    0.3428   -1.3314 C.3     1  UNL11       0.0362
      4 C          -1.7070   -0.4343   -0.6277 C.ar    1  UNL11      -0.0322
      5 C          -1.4557   -1.7791   -0.3870 C.ar    1  UNL11      -0.0576
      6 C          -2.3176   -2.5742    0.3221 C.ar    1  UNL11      -0.0609
      7 C          -3.4720   -2.0185    0.8124 C.ar    1  UNL11      -0.0540
      8 C          -3.7637   -0.6850    0.5954 C.ar    1  UNL11      -0.0176
      9 C          -4.9307   -0.1783    1.0888 C.ar    1  UNL11      -0.0540
     10 C          -5.2287    1.1582    0.8544 C.ar    1  UNL11      -0.0612
     11 C          -4.3649    1.9337    0.1456 C.ar    1  UNL11      -0.0612
     12 C          -3.1995    1.3925   -0.3363 C.ar    1  UNL11      -0.0538
     13 C          -2.8663    0.0899   -0.1292 C.ar    1  UNL11      -0.0143
     14 C           1.3761    0.1852    0.1890 C.ar    1  UNL11       0.0234
     15 C           2.2509    0.6217    1.1464 C.ar    1  UNL11      -0.0059
     16 C           3.3649   -0.1318    1.5381 C.ar    1  UNL11       0.1611
     17 O           4.1782    0.4166    2.5156 O.3     1  UNL11      -0.5032
     18 C           3.5751   -1.3421    0.9385 C.ar    1  UNL11       0.1846
     19 O           4.6634   -2.1117    1.2996 O.3     1  UNL11      -0.5019
     20 C           2.7203   -1.8127   -0.0241 C.ar    1  UNL11       0.1170
     21 N           2.9587   -3.0900   -0.6475 N.4     1  UNL11      -0.2014
     22 O           1.9806   -3.2936   -1.5594 O.3     1  UNL11      -0.2807
     23 F           2.9557   -4.0206    0.3114 F       1  UNL11      -0.0963
     24 C           1.6349   -1.0515   -0.3890 C.ar    1  UNL11      -0.0215
     25 H          -0.1536   -0.3118   -2.0354 H       1  UNL11       0.0394
     26 H          -1.1099    1.1536   -1.9705 H       1  UNL11       0.0394
     27 H          -0.5472   -2.2220   -0.7730 H       1  UNL11       0.0621
     28 H          -2.1252   -3.6280    0.5160 H       1  UNL11       0.0618
     29 H          -4.1486   -2.6686    1.3782 H       1  UNL11       0.0624
     30 H          -5.6277   -0.7710    1.6506 H       1  UNL11       0.0624
     31 H          -6.1415    1.5689    1.2365 H       1  UNL11       0.0618
     32 H          -4.6328    2.9661   -0.0175 H       1  UNL11       0.0618
     33 H          -2.5587    2.0145   -0.9017 H       1  UNL11       0.0624
     34 H           2.0828    1.5719    1.6151 H       1  UNL11       0.0662
     35 H           4.9897   -0.0684    2.8382 H       1  UNL11       0.2923
     36 H           5.3358   -1.8593    1.9797 H       1  UNL11       0.2924
     37 H           3.8935   -3.0848   -1.1277 H       1  UNL11       0.2057
     38 H           0.9930   -1.4820   -1.1583 H       1  UNL11       0.0647
     39 H           1.1190   -3.2980   -1.1138 H       1  UNL11       0.2449
@<TRIPOS>BOND
     1     1     2    2
     2     2     3    1
     3     2    14    1
     4     3     4    1
     5     3    25    1
     6     3    26    1
     7     4     5   ar
     8     5     6   ar
     9     5    27    1
    10     6     7   ar
    11     6    28    1
    12     7     8   ar
    13     7    29    1
    14     8     9   ar
    15     9    10   ar
    16     9    30    1
    17    10    11   ar
    18    10    31    1
    19    11    12   ar
    20    11    32    1
    21    12    13   ar
    22    12    33    1
    23    13     4   ar
    24    13     8   ar
    25    14    15   ar
    26    15    16   ar
    27    15    34    1
    28    16    17    1
    29    16    18   ar
    30    17    35    1
    31    18    19    1
    32    18    20   ar
    33    19    36    1
    34    20    21    1
    35    20    24   ar
    36    21    22    1
    37    21    23    1
    38    21    37    1
    39    24    14   ar
    40    24    38    1
    41    22    39    1
@<TRIPOS>MOLECULE
*****
 39 41 0 0 0
SMALL
GASTEIGER

@<TRIPOS>ATOM
      1 O           0.0038    0.6812    0.9431 O.2     1  UNL11      -0.2917
      2 C           0.2110    0.9103   -0.2824 C.2     1  UNL11       0.1676
      3 C          -0.6826    0.3428   -1.3314 C.3     1  UNL11       0.0362
      4 C          -1.7070   -0.4343   -0.6277 C.ar    1  UNL11      -0.0322
      5 C          -1.3653   -1.0172    0.5860 C.ar    1  UNL11      -0.0576
      6 C          -2.2689   -1.7043    1.3535 C.ar    1  UNL11      -0.0609
      7 C          -3.5600   -1.8193    0.9044 C.ar    1  UNL11      -0.0540
      8 C          -3.9440   -1.2568   -0.2984 C.ar    1  UNL11      -0.0176
      9 C          -5.2351   -1.4089   -0.7132 C.ar    1  UNL11      -0.0540
     10 C          -5.6133   -0.8567   -1.9306 C.ar    1  UNL11      -0.0612
     11 C          -4.7040   -0.1807   -2.6830 C.ar    1  UNL11      -0.0612
     12 C          -3.4134   -0.0458   -2.2361 C.ar    1  UNL11      -0.0538
     13 C          -2.9996   -0.5683   -1.0501 C.ar    1  UNL11      -0.0143
     14 C           1.3488    1.7412   -0.6295 C.ar    1  UNL11       0.0234
     15 C           1.8728    2.7376    0.1484 C.ar    1  UNL11      -0.0059
     16 C           2.9670    3.5086   -0.2643 C.ar    1  UNL11       0.1611
     17 O           3.4059    4.4892    0.6095 O.3     1  UNL11      -0.5032
     18 C           3.5228    3.2481   -1.4857 C.ar    1  UNL11       0.1846
     19 O           4.6025    3.9887   -1.9250 O.3     1  UNL11      -0.5019
     20 C           3.0257    2.2578   -2.2924 C.ar    1  UNL11       0.1170
     21 N           3.6226    1.9984   -3.5782 N.4     1  UNL11      -0.2014
     22 O           2.9306    0.9920   -4.1595 O.3     1  UNL11      -0.2807
     23 F           4.9045    1.6788   -3.3776 F       1  UNL11      -0.0963
     24 C           1.9505    1.5167   -1.8616 C.ar    1  UNL11      -0.0215
     25 H          -0.1536   -0.3118   -2.0354 H       1  UNL11       0.0394
     26 H          -1.1099    1.1536   -1.9705 H       1  UNL11       0.0394
     27 H          -0.3480   -0.9302    0.9436 H       1  UNL11       0.0621
     28 H          -2.0079   -2.1612    2.3065 H       1  UNL11       0.0618
     29 H          -4.2692   -2.3707    1.5316 H       1  UNL11       0.0624
     30 H          -5.9699   -1.9384   -0.1368 H       1  UNL11       0.0624
     31 H          -6.6240   -0.9685   -2.2679 H       1  UNL11       0.0618
     32 H          -5.0354    0.2316   -3.6233 H       1  UNL11       0.0618
     33 H          -2.7244    0.4663   -2.8528 H       1  UNL11       0.0624
     34 H           1.4343    2.9392    1.1065 H       1  UNL11       0.0662
     35 H           4.1802    5.0750    0.3751 H       1  UNL11       0.2923
     36 H           5.0302    4.7228   -1.4186 H       1  UNL11       0.2924
     37 H           3.5660    2.8588   -4.1790 H       1  UNL11       0.2057
     38 H           1.6038    0.7438   -2.5483 H       1  UNL11       0.0647
     39 H           2.9844    0.1992   -3.6033 H       1  UNL11       0.2449
@<TRIPOS>BOND
     1     1     2    2
     2     2     3    1
     3     2    14    1
     4     3     4    1
     5     3    25    1
     6     3    26    1
     7     4     5   ar
     8     5     6   ar
     9     5    27    1
    10     6     7   ar
    11     6    28    1
    12     7     8   ar
    13     7    29    1
    14     8     9   ar
    15     9    10   ar
    16     9    30    1
    17    10    11   ar
    18    10    31    1
    19    11    12   ar
    20    11    32    1
    21    12    13   ar
    22    12    33    1
    23    13     4   ar
    24    13     8   ar
    25    14    15   ar
    26    15    16   ar
    27    15    34    1
    28    16    17    1
    29    16    18   ar
    30    17    35    1
    31    18    19    1
    32    18    20   ar
    33    19    36    1
    34    20    21    1
    35    20    24   ar
    36    21    22    1
    37    21    23    1
    38    21    37    1
    39    24    14   ar
    40    24    38    1
    41    22    39    1
@<TRIPOS>MOLECULE
*****
 39 41 0 0 0
SMALL
GASTEIGER

@<TRIPOS>ATOM
      1 O           1.2330    0.2805    0.1127 O.2     1  UNL11      -0.2917
      2 C           0.2110    0.9103   -0.2824 C.2     1  UNL11       0.1676
      3 C          -0.6826    0.3428   -1.3314 C.3     1  UNL11       0.0362
      4 C          -1.7070   -0.4343   -0.6277 C.ar    1  UNL11      -0.0322
      5 C          -2.2474   -1.5387   -1.2740 C.ar    1  UNL11      -0.0576
      6 C          -3.1590   -2.3690   -0.6763 C.ar    1  UNL11      -0.0609
      7 C          -3.5513   -2.0974    0.6098 C.ar    1  UNL11      -0.0540
      8 C          -3.0410   -1.0081    1.2906 C.ar    1  UNL11      -0.0176
      9 C          -3.4710   -0.7675    2.5632 C.ar    1  UNL11      -0.0540
     10 C          -2.9687    0.3379    3.2384 C.ar    1  UNL11      -0.0612
     11 C          -2.0672    1.1548    2.6304 C.ar    1  UNL11      -0.0612
     12 C          -1.6555    0.8839    1.3495 C.ar    1  UNL11      -0.0538
     13 C          -2.1193   -0.1879    0.6516 C.ar    1  UNL11      -0.0143
     14 C          -0.0579    2.2031    0.3189 C.ar    1  UNL11       0.0234
     15 C          -1.2974    2.7539    0.4997 C.ar    1  UNL11      -0.0059
     16 C          -1.4750    4.0182    1.0761 C.ar    1  UNL11       0.1611
     17 O          -2.7780    4.4693    1.2045 O.3     1  UNL11      -0.5032
     18 C          -0.3669    4.7158    1.4684 C.ar    1  UNL11       0.1846
     19 O          -0.5043    5.9653    2.0402 O.3     1  UNL11      -0.5019
     20 C           0.8909    4.1965    1.3040 C.ar    1  UNL11       0.1170
     21 N           2.0483    4.9470    1.7213 N.4     1  UNL11      -0.2014
     22 O           3.0752    4.6087    0.9085 O.3     1  UNL11      -0.2807
     23 F           2.2950    4.6426    2.9988 F       1  UNL11      -0.0963
     24 C           1.0353    2.9531    0.7350 C.ar    1  UNL11      -0.0215
     25 H          -0.1536   -0.3118   -2.0354 H       1  UNL11       0.0394
     26 H          -1.1099    1.1536   -1.9705 H       1  UNL11       0.0394
     27 H          -1.9420   -1.7561   -2.2889 H       1  UNL11       0.0621
     28 H          -3.5843   -3.2373   -1.1767 H       1  UNL11       0.0618
     29 H          -4.2797   -2.7726    1.0724 H       1  UNL11       0.0624
     30 H          -4.1818   -1.3978    3.0632 H       1  UNL11       0.0624
     31 H          -3.2976    0.5381    4.2382 H       1  UNL11       0.0618
     32 H          -1.7022    2.0043    3.1865 H       1  UNL11       0.0618
     33 H          -0.9705    1.5489    0.8960 H       1  UNL11       0.0624
     34 H          -2.1649    2.2036    0.1909 H       1  UNL11       0.0662
     35 H          -2.9735    5.3630    1.6054 H       1  UNL11       0.2923
     36 H          -1.3658    6.4247    2.1988 H       1  UNL11       0.2924
     37 H           1.8562    5.9768    1.6374 H       1  UNL11       0.2057
     38 H           2.0606    2.5961    0.6335 H       1  UNL11       0.0647
     39 H           3.2505    3.6580    0.9877 H       1  UNL11       0.2449
@<TRIPOS>BOND
     1     1     2    2
     2     2     3    1
     3     2    14    1
     4     3     4    1
     5     3    25    1
     6     3    26    1
     7     4     5   ar
     8     5     6   ar
     9     5    27    1
    10     6     7   ar
    11     6    28    1
    12     7     8   ar
    13     7    29    1
    14     8     9   ar
    15     9    10   ar
    16     9    30    1
    17    10    11   ar
    18    10    31    1
    19    11    12   ar
    20    11    32    1
    21    12    13   ar
    22    12    33    1
    23    13     4   ar
    24    13     8   ar
    25    14    15   ar
    26    15    16   ar
    27    15    34    1
    28    16    17    1
    29    16    18   ar
    30    17    35    1
    31    18    19    1
    32    18    20   ar
    33    19    36    1
    34    20    21    1
    35    20    24   ar
    36    21    22    1
    37    21    23    1
    38    21    37    1
    39    24    14   ar
    40    24    38    1
    41    22    39    1
@<TRIPOS>MOLECULE
*****
 39 41 0 0 0
SMALL
GASTEIGER

@<TRIPOS>ATOM
      1 O           0.8566    0.1568    0.5003 O.2     1  UNL11      -0.2917
      2 C           0.2110    0.9103   -0.2824 C.2     1  UNL11       0.1676
      3 C          -0.6826    0.3428   -1.3314 C.3     1  UNL11       0.0362
      4 C          -1.7070   -0.4343   -0.6277 C.ar    1  UNL11      -0.0322
      5 C          -1.6496   -0.4855    0.7592 C.ar    1  UNL11      -0.0576
      6 C          -2.5979   -1.1265    1.5126 C.ar    1  UNL11      -0.0609
      7 C          -3.6432   -1.7402    0.8704 C.ar    1  UNL11      -0.0540
      8 C          -3.7396   -1.7162   -0.5082 C.ar    1  UNL11      -0.0176
      9 C          -4.7884   -2.3529   -1.1054 C.ar    1  UNL11      -0.0540
     10 C          -4.8730   -2.3411   -2.4921 C.ar    1  UNL11      -0.0612
     11 C          -3.9219   -1.7037   -3.2263 C.ar    1  UNL11      -0.0612
     12 C          -2.8801   -1.0728   -2.5939 C.ar    1  UNL11      -0.0538
     13 C          -2.7584   -1.0573   -1.2390 C.ar    1  UNL11      -0.0143
     14 C           0.3734    2.3435   -0.1244 C.ar    1  UNL11       0.0234
     15 C           1.1699    2.9561    0.8043 C.ar    1  UNL11      -0.0059
     16 C           1.2623    4.3503    0.9044 C.ar    1  UNL11       0.1611
     17 O           2.1005    4.8524    1.8857 O.3     1  UNL11      -0.5032
     18 C           0.5291    5.1146    0.0403 C.ar    1  UNL11       0.1846
     19 O           0.5953    6.4922    0.1104 O.3     1  UNL11      -0.5019
     20 C          -0.2795    4.5368   -0.9036 C.ar    1  UNL11       0.1170
     21 N          -1.0475    5.3581   -1.8052 N.4     1  UNL11      -0.2014
     22 O          -1.3359    6.5149   -1.1662 O.3     1  UNL11      -0.2807
     23 F          -2.1486    4.6791   -2.1403 F       1  UNL11      -0.0963
     24 C          -0.3508    3.1657   -0.9789 C.ar    1  UNL11      -0.0215
     25 H          -0.1536   -0.3118   -2.0354 H       1  UNL11       0.0394
     26 H          -1.1099    1.1536   -1.9705 H       1  UNL11       0.0394
     27 H          -0.8264   -0.0040    1.2700 H       1  UNL11       0.0621
     28 H          -2.5598   -1.1681    2.5998 H       1  UNL11       0.0618
     29 H          -4.3928   -2.2466    1.4886 H       1  UNL11       0.0624
     30 H          -5.5505   -2.8626   -0.5468 H       1  UNL11       0.0624
     31 H          -5.6916   -2.8368   -2.9737 H       1  UNL11       0.0618
     32 H          -4.0211   -1.7187   -4.3006 H       1  UNL11       0.0618
     33 H          -2.1452   -0.6045   -3.1921 H       1  UNL11       0.0624
     34 H           1.7442    2.3533    1.4808 H       1  UNL11       0.0662
     35 H           2.2098    5.8373    2.0113 H       1  UNL11       0.2923
     36 H           1.1459    7.0013    0.7554 H       1  UNL11       0.2924
     37 H          -0.4855    5.5627   -2.6693 H       1  UNL11       0.2057
     38 H          -1.0101    2.7685   -1.7514 H       1  UNL11       0.0647
     39 H          -1.8545    6.3234   -0.3691 H       1  UNL11       0.2449
@<TRIPOS>BOND
     1     1     2    2
     2     2     3    1
     3     2    14    1
     4     3     4    1
     5     3    25    1
     6     3    26    1
     7     4     5   ar
     8     5     6   ar
     9     5    27    1
    10     6     7   ar
    11     6    28    1
    12     7     8   ar
    13     7    29    1
    14     8     9   ar
    15     9    10   ar
    16     9    30    1
    17    10    11   ar
    18    10    31    1
    19    11    12   ar
    20    11    32    1
    21    12    13   ar
    22    12    33    1
    23    13     4   ar
    24    13     8   ar
    25    14    15   ar
    26    15    16   ar
    27    15    34    1
    28    16    17    1
    29    16    18   ar
    30    17    35    1
    31    18    19    1
    32    18    20   ar
    33    19    36    1
    34    20    21    1
    35    20    24   ar
    36    21    22    1
    37    21    23    1
    38    21    37    1
    39    24    14   ar
    40    24    38    1
    41    22    39    1
@<TRIPOS>MOLECULE
*****
 39 41 0 0 0
SMALL
GASTEIGER

@<TRIPOS>ATOM
      1 O           0.3564    2.1594   -0.1571 O.2     1  UNL11      -0.2917
      2 C           0.2110    0.9103   -0.2824 C.2     1  UNL11       0.1676
      3 C          -0.6826    0.3428   -1.3314 C.3     1  UNL11       0.0362
      4 C          -1.7070   -0.4343   -0.6277 C.ar    1  UNL11      -0.0322
      5 C          -2.2474   -1.5387   -1.2740 C.ar    1  UNL11      -0.0576
      6 C          -3.1590   -2.3690   -0.6763 C.ar    1  UNL11      -0.0609
      7 C          -3.5513   -2.0974    0.6098 C.ar    1  UNL11      -0.0540
      8 C          -3.0410   -1.0081    1.2906 C.ar    1  UNL11      -0.0176
      9 C          -3.4710   -0.7675    2.5632 C.ar    1  UNL11      -0.0540
     10 C          -2.9687    0.3379    3.2384 C.ar    1  UNL11      -0.0612
     11 C          -2.0672    1.1548    2.6304 C.ar    1  UNL11      -0.0612
     12 C          -1.6555    0.8839    1.3495 C.ar    1  UNL11      -0.0538
     13 C          -2.1193   -0.1879    0.6516 C.ar    1  UNL11      -0.0143
     14 C           0.9415    0.0519    0.6313 C.ar    1  UNL11       0.0234
     15 C           1.2996    0.3752    1.9118 C.ar    1  UNL11      -0.0059
     16 C           2.0201   -0.5048    2.7296 C.ar    1  UNL11       0.1611
     17 O           2.3256   -0.0635    4.0062 O.3     1  UNL11      -0.5032
     18 C           2.3712   -1.7244    2.2221 C.ar    1  UNL11       0.1846
     19 O           3.0821   -2.6171    2.9999 O.3     1  UNL11      -0.5019
     20 C           2.0299   -2.0838    0.9442 C.ar    1  UNL11       0.1170
     21 N           2.4105   -3.3731    0.4246 N.4     1  UNL11      -0.2014
     22 O           2.5848   -3.2454   -0.9106 O.3     1  UNL11      -0.2807
     23 F           1.4383   -4.2391    0.7257 F       1  UNL11      -0.0963
     24 C           1.3225   -1.1998    0.1639 C.ar    1  UNL11      -0.0215
     25 H          -0.1536   -0.3118   -2.0354 H       1  UNL11       0.0394
     26 H          -1.1099    1.1536   -1.9705 H       1  UNL11       0.0394
     27 H          -1.9420   -1.7561   -2.2889 H       1  UNL11       0.0621
     28 H          -3.5843   -3.2373   -1.1767 H       1  UNL11       0.0618
     29 H          -4.2797   -2.7726    1.0724 H       1  UNL11       0.0624
     30 H          -4.1818   -1.3978    3.0632 H       1  UNL11       0.0624
     31 H          -3.2976    0.5381    4.2382 H       1  UNL11       0.0618
     32 H          -1.7022    2.0043    3.1865 H       1  UNL11       0.0618
     33 H          -0.9705    1.5489    0.8960 H       1  UNL11       0.0624
     34 H           1.0222    1.3332    2.3070 H       1  UNL11       0.0662
     35 H           2.8389   -0.6413    4.6388 H       1  UNL11       0.2923
     36 H           3.3756   -2.4505    3.9297 H       1  UNL11       0.2924
     37 H           3.3093   -3.6870    0.8696 H       1  UNL11       0.2057
     38 H           1.0807   -1.5459   -0.8415 H       1  UNL11       0.0647
     39 H           1.7540   -2.9557   -1.3189 H       1  UNL11       0.2449
@<TRIPOS>BOND
     1     1     2    2
     2     2     3    1
     3     2    14    1
     4     3     4    1
     5     3    25    1
     6     3    26    1
     7     4     5   ar
     8     5     6   ar
     9     5    27    1
    10     6     7   ar
    11     6    28    1
    12     7     8   ar
    13     7    29    1
    14     8     9   ar
    15     9    10   ar
    16     9    30    1
    17    10    11   ar
    18    10    31    1
    19    11    12   ar
    20    11    32    1
    21    12    13   ar
    22    12    33    1
    23    13     4   ar
    24    13     8   ar
    25    14    15   ar
    26    15    16   ar
    27    15    34    1
    28    16    17    1
    29    16    18   ar
    30    17    35    1
    31    18    19    1
    32    18    20   ar
    33    19    36    1
    34    20    21    1
    35    20    24   ar
    36    21    22    1
    37    21    23    1
    38    21    37    1
    39    24    14   ar
    40    24    38    1
    41    22    39    1
@<TRIPOS>MOLECULE
*****
 39 41 0 0 0
SMALL
GASTEIGER

@<TRIPOS>ATOM
      1 O           0.3926    0.3080    0.8137 O.2     1  UNL11      -0.2917
      2 C           0.2110    0.9103   -0.2824 C.2     1  UNL11       0.1676
      3 C          -0.6826    0.3428   -1.3314 C.3     1  UNL11       0.0362
      4 C          -1.7070   -0.4343   -0.6277 C.ar    1  UNL11      -0.0322
      5 C          -2.9657   -0.5312   -1.2072 C.ar    1  UNL11      -0.0576
      6 C          -3.9700   -1.2895   -0.6647 C.ar    1  UNL11      -0.0609
      7 C          -3.7204   -1.9787    0.4948 C.ar    1  UNL11      -0.0540
      8 C          -2.4831   -1.9099    1.1070 C.ar    1  UNL11      -0.0176
      9 C          -2.2841   -2.6000    2.2673 C.ar    1  UNL11      -0.0540
     10 C          -1.0446   -2.5151    2.8889 C.ar    1  UNL11      -0.0612
     11 C          -0.0589   -1.7553    2.3402 C.ar    1  UNL11      -0.0612
     12 C          -0.2922   -1.0741    1.1719 C.ar    1  UNL11      -0.0538
     13 C          -1.4895   -1.1298    0.5283 C.ar    1  UNL11      -0.0143
     14 C           0.9044    2.1691   -0.4824 C.ar    1  UNL11       0.0234
     15 C           1.7441    2.7665    0.4179 C.ar    1  UNL11      -0.0059
     16 C           2.3662    3.9940    0.1567 C.ar    1  UNL11       0.1611
     17 O           3.1929    4.4989    1.1464 O.3     1  UNL11      -0.5032
     18 C           2.1204    4.6064   -1.0403 C.ar    1  UNL11       0.1846
     19 O           2.7164    5.8176   -1.3315 O.3     1  UNL11      -0.5019
     20 C           1.2856    4.0383   -1.9672 C.ar    1  UNL11       0.1170
     21 N           1.0359    4.6992   -3.2234 N.4     1  UNL11      -0.2014
     22 O           1.1450    6.0317   -3.0182 O.3     1  UNL11      -0.2807
     23 F          -0.1873    4.3507   -3.6333 F       1  UNL11      -0.0963
     24 C           0.6883    2.8326   -1.6839 C.ar    1  UNL11      -0.0215
     25 H          -0.1536   -0.3118   -2.0354 H       1  UNL11       0.0394
     26 H          -1.1099    1.1536   -1.9705 H       1  UNL11       0.0394
     27 H          -3.1676    0.0116   -2.1209 H       1  UNL11       0.0621
     28 H          -4.9576   -1.3714   -1.1153 H       1  UNL11       0.0618
     29 H          -4.5344   -2.5809    0.9134 H       1  UNL11       0.0624
     30 H          -3.0469   -3.2056    2.7190 H       1  UNL11       0.0624
     31 H          -0.8748   -3.0523    3.8002 H       1  UNL11       0.0618
     32 H           0.8890   -1.7128    2.8538 H       1  UNL11       0.0618
     33 H           0.4861   -0.4751    0.7814 H       1  UNL11       0.0624
     34 H           1.9349    2.2830    1.3563 H       1  UNL11       0.0662
     35 H           3.6649    5.3707    1.0242 H       1  UNL11       0.2923
     36 H           3.3303    6.3067   -0.7296 H       1  UNL11       0.2924
     37 H           1.7447    4.3925   -3.9361 H       1  UNL11       0.2057
     38 H           0.0373    2.4333   -2.4623 H       1  UNL11       0.0647
     39 H           0.4899    6.3122   -2.3602 H       1  UNL11       0.2449
@<TRIPOS>BOND
     1     1     2    2
     2     2     3    1
     3     2    14    1
     4     3     4    1
     5     3    25    1
     6     3    26    1
     7     4     5   ar
     8     5     6   ar
     9     5    27    1
    10     6     7   ar
    11     6    28    1
    12     7     8   ar
    13     7    29    1
    14     8     9   ar
    15     9    10   ar
    16     9    30    1
    17    10    11   ar
    18    10    31    1
    19    11    12   ar
    20    11    32    1
    21    12    13   ar
    22    12    33    1
    23    13     4   ar
    24    13     8   ar
    25    14    15   ar
    26    15    16   ar
    27    15    34    1
    28    16    17    1
    29    16    18   ar
    30    17    35    1
    31    18    19    1
    32    18    20   ar
    33    19    36    1
    34    20    21    1
    35    20    24   ar
    36    21    22    1
    37    21    23    1
    38    21    37    1
    39    24    14   ar
    40    24    38    1
    41    22    39    1
@<TRIPOS>MOLECULE
*****
 39 41 0 0 0
SMALL
GASTEIGER

@<TRIPOS>ATOM
      1 O          -0.2286    1.1793    0.8715 O.2     1  UNL11      -0.2917
      2 C           0.2110    0.9103   -0.2824 C.2     1  UNL11       0.1676
      3 C          -0.6826    0.3428   -1.3314 C.3     1  UNL11       0.0362
      4 C          -1.7070   -0.4343   -0.6277 C.ar    1  UNL11      -0.0322
      5 C          -2.9657   -0.5312   -1.2072 C.ar    1  UNL11      -0.0576
      6 C          -3.9700   -1.2895   -0.6647 C.ar    1  UNL11      -0.0609
      7 C          -3.7204   -1.9787    0.4948 C.ar    1  UNL11      -0.0540
      8 C          -2.4831   -1.9099    1.1070 C.ar    1  UNL11      -0.0176
      9 C          -2.2841   -2.6000    2.2673 C.ar    1  UNL11      -0.0540
     10 C          -1.0446   -2.5151    2.8889 C.ar    1  UNL11      -0.0612
     11 C          -0.0589   -1.7553    2.3402 C.ar    1  UNL11      -0.0612
     12 C          -0.2922   -1.0741    1.1719 C.ar    1  UNL11      -0.0538
     13 C          -1.4895   -1.1298    0.5283 C.ar    1  UNL11      -0.0143
     14 C           1.6137    1.1709   -0.5467 C.ar    1  UNL11       0.0234
     15 C           2.5097    1.6862    0.3501 C.ar    1  UNL11      -0.0059
     16 C           3.8485    1.9242    0.0138 C.ar    1  UNL11       0.1611
     17 O           4.6584    2.4500    1.0064 O.3     1  UNL11      -0.5032
     18 C           4.2634    1.6276   -1.2544 C.ar    1  UNL11       0.1846
     19 O           5.5762    1.8496   -1.6210 O.3     1  UNL11      -0.5019
     20 C           3.3950    1.1096   -2.1798 C.ar    1  UNL11       0.1170
     21 N           3.8492    0.8048   -3.5132 N.4     1  UNL11      -0.2014
     22 O           5.1621    1.1220   -3.5851 O.3     1  UNL11      -0.2807
     23 F           3.1109    1.5166   -4.3699 F       1  UNL11      -0.0963
     24 C           2.0863    0.8864   -1.8219 C.ar    1  UNL11      -0.0215
     25 H          -0.1536   -0.3118   -2.0354 H       1  UNL11       0.0394
     26 H          -1.1099    1.1536   -1.9705 H       1  UNL11       0.0394
     27 H          -3.1676    0.0116   -2.1209 H       1  UNL11       0.0621
     28 H          -4.9576   -1.3714   -1.1153 H       1  UNL11       0.0618
     29 H          -4.5344   -2.5809    0.9134 H       1  UNL11       0.0624
     30 H          -3.0469   -3.2056    2.7190 H       1  UNL11       0.0624
     31 H          -0.8748   -3.0523    3.8002 H       1  UNL11       0.0618
     32 H           0.8890   -1.7128    2.8538 H       1  UNL11       0.0618
     33 H           0.4861   -0.4751    0.7814 H       1  UNL11       0.0624
     34 H           2.1807    1.9178    1.3446 H       1  UNL11       0.0662
     35 H           5.6223    2.6450    0.8314 H       1  UNL11       0.2923
     36 H           6.2756    2.2204   -1.0279 H       1  UNL11       0.2924
     37 H           3.7223   -0.2199   -3.7088 H       1  UNL11       0.2057
     38 H           1.4472    0.4720   -2.6023 H       1  UNL11       0.0647
     39 H           5.2766    2.0680   -3.4042 H       1  UNL11       0.2449
@<TRIPOS>BOND
     1     1     2    2
     2     2     3    1
     3     2    14    1
     4     3     4    1
     5     3    25    1
     6     3    26    1
     7     4     5   ar
     8     5     6   ar
     9     5    27    1
    10     6     7   ar
    11     6    28    1
    12     7     8   ar
    13     7    29    1
    14     8     9   ar
    15     9    10   ar
    16     9    30    1
    17    10    11   ar
    18    10    31    1
    19    11    12   ar
    20    11    32    1
    21    12    13   ar
    22    12    33    1
    23    13     4   ar
    24    13     8   ar
    25    14    15   ar
    26    15    16   ar
    27    15    34    1
    28    16    17    1
    29    16    18   ar
    30    17    35    1
    31    18    19    1
    32    18    20   ar
    33    19    36    1
    34    20    21    1
    35    20    24   ar
    36    21    22    1
    37    21    23    1
    38    21    37    1
    39    24    14   ar
    40    24    38    1
    41    22    39    1
@<TRIPOS>MOLECULE
*****
 39 41 0 0 0
SMALL
GASTEIGER

@<TRIPOS>ATOM
      1 O           0.7998    2.0149   -0.4566 O.2     1  UNL11      -0.2917
      2 C           0.2110    0.9103   -0.2824 C.2     1  UNL11       0.1676
      3 C          -0.6826    0.3428   -1.3314 C.3     1  UNL11       0.0362
      4 C          -1.7070   -0.4343   -0.6277 C.ar    1  UNL11      -0.0322
      5 C          -1.3653   -1.0172    0.5860 C.ar    1  UNL11      -0.0576
      6 C          -2.2689   -1.7043    1.3535 C.ar    1  UNL11      -0.0609
      7 C          -3.5600   -1.8193    0.9044 C.ar    1  UNL11      -0.0540
      8 C          -3.9440   -1.2568   -0.2984 C.ar    1  UNL11      -0.0176
      9 C          -5.2351   -1.4089   -0.7132 C.ar    1  UNL11      -0.0540
     10 C          -5.6133   -0.8567   -1.9306 C.ar    1  UNL11      -0.0612
     11 C          -4.7040   -0.1807   -2.6830 C.ar    1  UNL11      -0.0612
     12 C          -3.4134   -0.0458   -2.2361 C.ar    1  UNL11      -0.0538
     13 C          -2.9996   -0.5683   -1.0501 C.ar    1  UNL11      -0.0143
     14 C           0.4341    0.2186    0.9734 C.ar    1  UNL11       0.0234
     15 C           1.2319    0.6599    1.9938 C.ar    1  UNL11      -0.0059
     16 C           1.4092   -0.0748    3.1732 C.ar    1  UNL11       0.1611
     17 O           2.2427    0.4749    4.1328 O.3     1  UNL11      -0.5032
     18 C           0.7583   -1.2702    3.2991 C.ar    1  UNL11       0.1846
     19 O           0.9101   -2.0213    4.4480 O.3     1  UNL11      -0.5019
     20 C          -0.0496   -1.7445    2.2986 C.ar    1  UNL11       0.1170
     21 N          -0.7264   -3.0083    2.4474 N.4     1  UNL11      -0.2014
     22 O          -0.3946   -3.5148    3.6569 O.3     1  UNL11      -0.2807
     23 F          -0.3376   -3.8015    1.4447 F       1  UNL11      -0.0963
     24 C          -0.2050   -1.0022    1.1517 C.ar    1  UNL11      -0.0215
     25 H          -0.1536   -0.3118   -2.0354 H       1  UNL11       0.0394
     26 H          -1.1099    1.1536   -1.9705 H       1  UNL11       0.0394
     27 H          -0.3480   -0.9302    0.9436 H       1  UNL11       0.0621
     28 H          -2.0079   -2.1612    2.3065 H       1  UNL11       0.0618
     29 H          -4.2692   -2.3707    1.5316 H       1  UNL11       0.0624
     30 H          -5.9699   -1.9384   -0.1368 H       1  UNL11       0.0624
     31 H          -6.6240   -0.9685   -2.2679 H       1  UNL11       0.0618
     32 H          -5.0354    0.2316   -3.6233 H       1  UNL11       0.0618
     33 H          -2.7244    0.4663   -2.8528 H       1  UNL11       0.0624
     34 H           1.7411    1.5986    1.8917 H       1  UNL11       0.0662
     35 H           2.4131    0.0011    4.9955 H       1  UNL11       0.2923
     36 H           1.4705   -1.7664    5.2222 H       1  UNL11       0.2924
     37 H          -1.7663   -2.8651    2.3977 H       1  UNL11       0.2057
     38 H          -0.8614   -1.4334    0.3951 H       1  UNL11       0.0647
     39 H           0.5655   -3.6460    3.7002 H       1  UNL11       0.2449
@<TRIPOS>BOND
     1     1     2    2
     2     2     3    1
     3     2    14    1
     4     3     4    1
     5     3    25    1
     6     3    26    1
     7     4     5   ar
     8     5     6   ar
     9     5    27    1
    10     6     7   ar
    11     6    28    1
    12     7     8   ar
    13     7    29    1
    14     8     9   ar
    15     9    10   ar
    16     9    30    1
    17    10    11   ar
    18    10    31    1
    19    11    12   ar
    20    11    32    1
    21    12    13   ar
    22    12    33    1
    23    13     4   ar
    24    13     8   ar
    25    14    15   ar
    26    15    16   ar
    27    15    34    1
    28    16    17    1
    29    16    18   ar
    30    17    35    1
    31    18    19    1
    32    18    20   ar
    33    19    36    1
    34    20    21    1
    35    20    24   ar
    36    21    22    1
    37    21    23    1
    38    21    37    1
    39    24    14   ar
    40    24    38    1
    41    22    39    1
@<TRIPOS>MOLECULE
*****
 39 41 0 0 0
SMALL
GASTEIGER

@<TRIPOS>ATOM
      1 O           0.0038    0.6812    0.9431 O.2     1  UNL11      -0.2917
      2 C           0.2110    0.9103   -0.2824 C.2     1  UNL11       0.1676
      3 C          -0.6826    0.3428   -1.3314 C.3     1  UNL11       0.0362
      4 C          -1.7070   -0.4343   -0.6277 C.ar    1  UNL11      -0.0322
      5 C          -1.6496   -0.4855    0.7592 C.ar    1  UNL11      -0.0576
      6 C          -2.5979   -1.1265    1.5126 C.ar    1  UNL11      -0.0609
      7 C          -3.6432   -1.7402    0.8704 C.ar    1  UNL11      -0.0540
      8 C          -3.7396   -1.7162   -0.5082 C.ar    1  UNL11      -0.0176
      9 C          -4.7884   -2.3529   -1.1054 C.ar    1  UNL11      -0.0540
     10 C          -4.8730   -2.3411   -2.4921 C.ar    1  UNL11      -0.0612
     11 C          -3.9219   -1.7037   -3.2263 C.ar    1  UNL11      -0.0612
     12 C          -2.8801   -1.0728   -2.5939 C.ar    1  UNL11      -0.0538
     13 C          -2.7584   -1.0573   -1.2390 C.ar    1  UNL11      -0.0143
     14 C           1.3488    1.7412   -0.6295 C.ar    1  UNL11       0.0234
     15 C           2.0806    1.6467   -1.7819 C.ar    1  UNL11      -0.0059
     16 C           3.1786    2.4779   -2.0384 C.ar    1  UNL11       0.1611
     17 O           3.8412    2.2854   -3.2390 O.3     1  UNL11      -0.5032
     18 C           3.5211    3.4113   -1.1004 C.ar    1  UNL11       0.1846
     19 O           4.5981    4.2475   -1.3197 O.3     1  UNL11      -0.5019
     20 C           2.8115    3.5359    0.0656 C.ar    1  UNL11       0.1170
     21 N           3.1883    4.5242    1.0447 N.4     1  UNL11      -0.2014
     22 O           2.3365    4.4160    2.0898 O.3     1  UNL11      -0.2807
     23 F           3.1211    5.7246    0.4616 F       1  UNL11      -0.0963
     24 C           1.7383    2.7064    0.2909 C.ar    1  UNL11      -0.0215
     25 H          -0.1536   -0.3118   -2.0354 H       1  UNL11       0.0394
     26 H          -1.1099    1.1536   -1.9705 H       1  UNL11       0.0394
     27 H          -0.8264   -0.0040    1.2700 H       1  UNL11       0.0621
     28 H          -2.5598   -1.1681    2.5998 H       1  UNL11       0.0618
     29 H          -4.3928   -2.2466    1.4886 H       1  UNL11       0.0624
     30 H          -5.5505   -2.8626   -0.5468 H       1  UNL11       0.0624
     31 H          -5.6916   -2.8368   -2.9737 H       1  UNL11       0.0618
     32 H          -4.0211   -1.7187   -4.3006 H       1  UNL11       0.0618
     33 H          -2.1452   -0.6045   -3.1921 H       1  UNL11       0.0624
     34 H           1.8089    0.9132   -2.5159 H       1  UNL11       0.0662
     35 H           4.6333    2.8434   -3.4821 H       1  UNL11       0.2923
     36 H           5.1715    4.2341   -2.1256 H       1  UNL11       0.2924
     37 H           4.1716    4.3478    1.3709 H       1  UNL11       0.2057
     38 H           1.2150    2.8569    1.2358 H       1  UNL11       0.0647
     39 H           1.4298    4.5792    1.7862 H       1  UNL11       0.2449
@<TRIPOS>BOND
     1     1     2    2
     2     2     3    1
     3     2    14    1
     4     3     4    1
     5     3    25    1
     6     3    26    1
     7     4     5   ar
     8     5     6   ar
     9     5    27    1
    10     6     7   ar
    11     6    28    1
    12     7     8   ar
    13     7    29    1
    14     8     9   ar
    15     9    10   ar
    16     9    30    1
    17    10    11   ar
    18    10    31    1
    19    11    12   ar
    20    11    32    1
    21    12    13   ar
    22    12    33    1
    23    13     4   ar
    24    13     8   ar
    25    14    15   ar
    26    15    16   ar
    27    15    34    1
    28    16    17    1
    29    16    18   ar
    30    17    35    1
    31    18    19    1
    32    18    20   ar
    33    19    36    1
    34    20    21    1
    35    20    24   ar
    36    21    22    1
    37    21    23    1
    38    21    37    1
    39    24    14   ar
    40    24    38    1
    41    22    39    1
@<TRIPOS>MOLECULE
*****
 39 41 0 0 0
SMALL
GASTEIGER

@<TRIPOS>ATOM
      1 O           0.0038    0.6812    0.9431 O.2     1  UNL11      -0.2917
      2 C           0.2110    0.9103   -0.2824 C.2     1  UNL11       0.1676
      3 C          -0.6826    0.3428   -1.3314 C.3     1  UNL11       0.0362
      4 C          -1.7070   -0.4343   -0.6277 C.ar    1  UNL11      -0.0322
      5 C          -2.6682   -1.0877   -1.3885 C.ar    1  UNL11      -0.0576
      6 C          -3.6257   -1.8941   -0.8312 C.ar    1  UNL11      -0.0609
      7 C          -3.6333   -2.0614    0.5303 C.ar    1  UNL11      -0.0540
      8 C          -2.6970   -1.4291    1.3266 C.ar    1  UNL11      -0.0176
      9 C          -2.7515   -1.6122    2.6778 C.ar    1  UNL11      -0.0540
     10 C          -1.8193   -0.9617    3.4765 C.ar    1  UNL11      -0.0612
     11 C          -0.8773   -0.1616    2.9089 C.ar    1  UNL11      -0.0612
     12 C          -0.8503    0.0006    1.5464 C.ar    1  UNL11      -0.0538
     13 C          -1.7419   -0.6180    0.7259 C.ar    1  UNL11      -0.0143
     14 C           1.3488    1.7412   -0.6295 C.ar    1  UNL11       0.0234
     15 C           1.8728    2.7376    0.1484 C.ar    1  UNL11      -0.0059
     16 C           2.9670    3.5086   -0.2643 C.ar    1  UNL11       0.1611
     17 O           3.4059    4.4892    0.6095 O.3     1  UNL11      -0.5032
     18 C           3.5228    3.2481   -1.4857 C.ar    1  UNL11       0.1846
     19 O           4.6025    3.9887   -1.9250 O.3     1  UNL11      -0.5019
     20 C           3.0257    2.2578   -2.2924 C.ar    1  UNL11       0.1170
     21 N           3.6226    1.9984   -3.5782 N.4     1  UNL11      -0.2014
     22 O           2.6512    1.5385   -4.3995 O.3     1  UNL11      -0.2807
     23 F           4.6000    1.1042   -3.4031 F       1  UNL11      -0.0963
     24 C           1.9505    1.5167   -1.8616 C.ar    1  UNL11      -0.0215
     25 H          -0.1536   -0.3118   -2.0354 H       1  UNL11       0.0394
     26 H          -1.1099    1.1536   -1.9705 H       1  UNL11       0.0394
     27 H          -2.6670   -0.9576   -2.4625 H       1  UNL11       0.0621
     28 H          -4.3800   -2.4106   -1.4222 H       1  UNL11       0.0618
     29 H          -4.4050   -2.7107    0.9584 H       1  UNL11       0.0624
     30 H          -3.4858   -2.2384    3.1481 H       1  UNL11       0.0624
     31 H          -1.8506   -1.0972    4.5388 H       1  UNL11       0.0618
     32 H          -0.1724    0.3281    3.5626 H       1  UNL11       0.0618
     33 H          -0.1200    0.6455    1.1365 H       1  UNL11       0.0624
     34 H           1.4343    2.9392    1.1065 H       1  UNL11       0.0662
     35 H           4.1802    5.0750    0.3751 H       1  UNL11       0.2923
     36 H           5.0302    4.7228   -1.4186 H       1  UNL11       0.2924
     37 H           4.0260    2.8858   -3.9709 H       1  UNL11       0.2057
     38 H           1.6038    0.7438   -2.5483 H       1  UNL11       0.0647
     39 H           2.2805    0.7196   -4.0350 H       1  UNL11       0.2449
@<TRIPOS>BOND
     1     1     2    2
     2     2     3    1
     3     2    14    1
     4     3     4    1
     5     3    25    1
     6     3    26    1
     7     4     5   ar
     8     5     6   ar
     9     5    27    1
    10     6     7   ar
    11     6    28    1
    12     7     8   ar
    13     7    29    1
    14     8     9   ar
    15     9    10   ar
    16     9    30    1
    17    10    11   ar
    18    10    31    1
    19    11    12   ar
    20    11    32    1
    21    12    13   ar
    22    12    33    1
    23    13     4   ar
    24    13     8   ar
    25    14    15   ar
    26    15    16   ar
    27    15    34    1
    28    16    17    1
    29    16    18   ar
    30    17    35    1
    31    18    19    1
    32    18    20   ar
    33    19    36    1
    34    20    21    1
    35    20    24   ar
    36    21    22    1
    37    21    23    1
    38    21    37    1
    39    24    14   ar
    40    24    38    1
    41    22    39    1
@<TRIPOS>MOLECULE
*****
 39 41 0 0 0
SMALL
GASTEIGER

@<TRIPOS>ATOM
      1 O           0.3564    2.1594   -0.1571 O.2     1  UNL11      -0.2917
      2 C           0.2110    0.9103   -0.2824 C.2     1  UNL11       0.1676
      3 C          -0.6826    0.3428   -1.3314 C.3     1  UNL11       0.0362
      4 C          -1.7070   -0.4343   -0.6277 C.ar    1  UNL11      -0.0322
      5 C          -3.0357   -0.0646   -0.7937 C.ar    1  UNL11      -0.0576
      6 C          -4.0711   -0.7673   -0.2353 C.ar    1  UNL11      -0.0609
      7 C          -3.7822   -1.8783    0.5157 C.ar    1  UNL11      -0.0540
      8 C          -2.4744   -2.2819    0.7089 C.ar    1  UNL11      -0.0176
      9 C          -2.2328   -3.3844    1.4758 C.ar    1  UNL11      -0.0540
     10 C          -0.9162   -3.7774    1.6818 C.ar    1  UNL11      -0.0612
     11 C           0.1009   -3.0674    1.1240 C.ar    1  UNL11      -0.0612
     12 C          -0.1770   -1.9633    0.3576 C.ar    1  UNL11      -0.0538
     13 C          -1.4506   -1.5436    0.1279 C.ar    1  UNL11      -0.0143
     14 C           0.9415    0.0519    0.6313 C.ar    1  UNL11       0.0234
     15 C           0.5308   -1.1786    1.0668 C.ar    1  UNL11      -0.0059
     16 C           1.2875   -1.9430    1.9642 C.ar    1  UNL11       0.1611
     17 O           0.7662   -3.1718    2.3328 O.3     1  UNL11      -0.5032
     18 C           2.4741   -1.4340    2.4127 C.ar    1  UNL11       0.1846
     19 O           3.2461   -2.1599    3.2984 O.3     1  UNL11      -0.5019
     20 C           2.9186   -0.2053    1.9984 C.ar    1  UNL11       0.1170
     21 N           4.1712    0.3169    2.4835 N.4     1  UNL11      -0.2014
     22 O           4.0727    1.6656    2.5134 O.3     1  UNL11      -0.2807
     23 F           5.1358   -0.1000    1.6580 F       1  UNL11      -0.0963
     24 C           2.1550    0.5232    1.1171 C.ar    1  UNL11      -0.0215
     25 H          -0.1536   -0.3118   -2.0354 H       1  UNL11       0.0394
     26 H          -1.1099    1.1536   -1.9705 H       1  UNL11       0.0394
     27 H          -3.2683    0.8116   -1.3840 H       1  UNL11       0.0621
     28 H          -5.1144   -0.4841   -0.3637 H       1  UNL11       0.0618
     29 H          -4.6225   -2.4287    0.9532 H       1  UNL11       0.0624
     30 H          -3.0191   -3.9601    1.9264 H       1  UNL11       0.0624
     31 H          -0.7125   -4.6415    2.2815 H       1  UNL11       0.0618
     32 H           1.1096   -3.4027    1.3089 H       1  UNL11       0.0618
     33 H           0.6353   -1.4198   -0.0447 H       1  UNL11       0.0624
     34 H          -0.4009   -1.5751    0.7126 H       1  UNL11       0.0662
     35 H           1.2547   -3.7649    2.9709 H       1  UNL11       0.2923
     36 H           3.0114   -3.0517    3.6560 H       1  UNL11       0.2924
     37 H           4.3586   -0.0450    3.4522 H       1  UNL11       0.2057
     38 H           2.5642    1.4910    0.8254 H       1  UNL11       0.0647
     39 H           3.8998    1.9971    1.6183 H       1  UNL11       0.2449
@<TRIPOS>BOND
     1     1     2    2
     2     2     3    1
     3     2    14    1
     4     3     4    1
     5     3    25    1
     6     3    26    1
     7     4     5   ar
     8     5     6   ar
     9     5    27    1
    10     6     7   ar
    11     6    28    1
    12     7     8   ar
    13     7    29    1
    14     8     9   ar
    15     9    10   ar
    16     9    30    1
    17    10    11   ar
    18    10    31    1
    19    11    12   ar
    20    11    32    1
    21    12    13   ar
    22    12    33    1
    23    13     4   ar
    24    13     8   ar
    25    14    15   ar
    26    15    16   ar
    27    15    34    1
    28    16    17    1
    29    16    18   ar
    30    17    35    1
    31    18    19    1
    32    18    20   ar
    33    19    36    1
    34    20    21    1
    35    20    24   ar
    36    21    22    1
    37    21    23    1
    38    21    37    1
    39    24    14   ar
    40    24    38    1
    41    22    39    1
@<TRIPOS>MOLECULE
*****
 39 41 0 0 0
SMALL
GASTEIGER

@<TRIPOS>ATOM
      1 O          -0.2437    1.6718    0.6179 O.2     1  UNL11      -0.2917
      2 C           0.2110    0.9103   -0.2824 C.2     1  UNL11       0.1676
      3 C          -0.6826    0.3428   -1.3314 C.3     1  UNL11       0.0362
      4 C          -1.7070   -0.4343   -0.6277 C.ar    1  UNL11      -0.0322
      5 C          -1.3653   -1.0172    0.5860 C.ar    1  UNL11      -0.0576
      6 C          -2.2689   -1.7043    1.3535 C.ar    1  UNL11      -0.0609
      7 C          -3.5600   -1.8193    0.9044 C.ar    1  UNL11      -0.0540
      8 C          -3.9440   -1.2568   -0.2984 C.ar    1  UNL11      -0.0176
      9 C          -5.2351   -1.4089   -0.7132 C.ar    1  UNL11      -0.0540
     10 C          -5.6133   -0.8567   -1.9306 C.ar    1  UNL11      -0.0612
     11 C          -4.7040   -0.1807   -2.6830 C.ar    1  UNL11      -0.0612
     12 C          -3.4134   -0.0458   -2.2361 C.ar    1  UNL11      -0.0538
     13 C          -2.9996   -0.5683   -1.0501 C.ar    1  UNL11      -0.0143
     14 C           1.6298    0.6076   -0.2556 C.ar    1  UNL11       0.0234
     15 C           2.2915   -0.1831   -1.1552 C.ar    1  UNL11      -0.0059
     16 C           3.6645   -0.4411   -1.0530 C.ar    1  UNL11       0.1611
     17 O           4.2209   -1.2584   -2.0227 O.3     1  UNL11      -0.5032
     18 C           4.3569    0.1213   -0.0173 C.ar    1  UNL11       0.1846
     19 O           5.7117   -0.1116    0.1147 O.3     1  UNL11      -0.5019
     20 C           3.7285    0.9194    0.9029 C.ar    1  UNL11       0.1170
     21 N           4.4737    1.5024    1.9901 N.4     1  UNL11      -0.2014
     22 O           5.7442    1.6908    1.5659 O.3     1  UNL11      -0.2807
     23 F           4.4079    0.6633    3.0280 F       1  UNL11      -0.0963
     24 C           2.3796    1.1553    0.7780 C.ar    1  UNL11      -0.0215
     25 H          -0.1536   -0.3118   -2.0354 H       1  UNL11       0.0394
     26 H          -1.1099    1.1536   -1.9705 H       1  UNL11       0.0394
     27 H          -0.3480   -0.9302    0.9436 H       1  UNL11       0.0621
     28 H          -2.0079   -2.1612    2.3065 H       1  UNL11       0.0618
     29 H          -4.2692   -2.3707    1.5316 H       1  UNL11       0.0624
     30 H          -5.9699   -1.9384   -0.1368 H       1  UNL11       0.0624
     31 H          -6.6240   -0.9685   -2.2679 H       1  UNL11       0.0618
     32 H          -5.0354    0.2316   -3.6233 H       1  UNL11       0.0618
     33 H          -2.7244    0.4663   -2.8528 H       1  UNL11       0.0624
     34 H           1.7451   -0.6228   -1.9670 H       1  UNL11       0.0662
     35 H           5.1940   -1.4833   -2.0064 H       1  UNL11       0.2923
     36 H           6.2527   -0.6724   -0.4946 H       1  UNL11       0.2924
     37 H           4.0506    2.4260    2.2590 H       1  UNL11       0.2057
     38 H           1.9399    1.7990    1.5405 H       1  UNL11       0.0647
     39 H           6.1324    0.8371    1.3184 H       1  UNL11       0.2449
@<TRIPOS>BOND
     1     1     2    2
     2     2     3    1
     3     2    14    1
     4     3     4    1
     5     3    25    1
     6     3    26    1
     7     4     5   ar
     8     5     6   ar
     9     5    27    1
    10     6     7   ar
    11     6    28    1
    12     7     8   ar
    13     7    29    1
    14     8     9   ar
    15     9    10   ar
    16     9    30    1
    17    10    11   ar
    18    10    31    1
    19    11    12   ar
    20    11    32    1
    21    12    13   ar
    22    12    33    1
    23    13     4   ar
    24    13     8   ar
    25    14    15   ar
    26    15    16   ar
    27    15    34    1
    28    16    17    1
    29    16    18   ar
    30    17    35    1
    31    18    19    1
    32    18    20   ar
    33    19    36    1
    34    20    21    1
    35    20    24   ar
    36    21    22    1
    37    21    23    1
    38    21    37    1
    39    24    14   ar
    40    24    38    1
    41    22    39    1
