@<TRIPOS>MOLECULE
*****
 40 42 0 0 0
SMALL
GASTEIGER

@<TRIPOS>ATOM
      1 C           4.9458    1.4875   -2.8253 C.3     1  UNL11       0.0059
      2 N           5.8797    0.6918   -2.0597 N.3     1  UNL11      -0.1930
      3 S           5.2074   -0.8490   -1.6580 S.O2    1  UNL11       0.0582
      4 O           6.3202   -1.6430   -1.0026 O.2     1  UNL11      -0.1531
      5 O           4.6765   -1.5332   -2.8658 O.2     1  UNL11      -0.1531
      6 C           3.9481   -0.6253   -0.4682 C.ar    1  UNL11       0.1070
      7 C           4.2329   -0.6637    0.8798 C.ar    1  UNL11      -0.0352
      8 C           3.2842   -0.4946    1.8345 C.ar    1  UNL11      -0.0582
      9 C           1.9663   -0.2731    1.4130 C.ar    1  UNL11      -0.0404
     10 C           1.6111   -0.2230    0.0993 C.ar    1  UNL11       0.0354
     11 N           0.2984   -0.0228   -0.3350 N.pl3   1  UNL11      -0.2836
     12 C          -0.9032   -0.3983    0.3246 C.ar    1  UNL11       0.2200
     13 N          -0.9654   -0.4633    1.6525 N.ar    1  UNL11      -0.2226
     14 C          -2.0626   -0.8088    2.3297 C.ar    1  UNL11       0.0332
     15 C          -3.1897   -1.1124    1.5711 C.ar    1  UNL11      -0.0174
     16 C          -3.1619   -1.0558    0.1967 C.ar    1  UNL11       0.0760
     17 C          -4.3401   -1.3724   -0.6160 C.ar    1  UNL11       0.0005
     18 C          -4.2393   -1.9059   -1.8617 C.ar    1  UNL11      -0.0526
     19 C          -5.3723   -2.2046   -2.6300 C.ar    1  UNL11      -0.0611
     20 C          -6.6129   -1.9541   -2.1161 C.ar    1  UNL11      -0.0617
     21 C          -6.7298   -1.4065   -0.8384 C.ar    1  UNL11      -0.0611
     22 C          -5.5943   -1.1210   -0.1012 C.ar    1  UNL11      -0.0526
     23 N          -2.0104   -0.6973   -0.4012 N.ar    1  UNL11      -0.2142
     24 C           2.6449   -0.4061   -0.8324 C.ar    1  UNL11      -0.0141
     25 H           4.5639    0.8454   -3.6674 H       1  UNL11       0.0405
     26 H           5.4730    2.3259   -3.3159 H       1  UNL11       0.0405
     27 H           4.0671    1.7993   -2.2314 H       1  UNL11       0.0405
     28 H           6.7061    0.5228   -2.6791 H       1  UNL11       0.1477
     29 H           5.2522   -0.8352    1.1915 H       1  UNL11       0.0637
     30 H           3.4661   -0.5176    2.8992 H       1  UNL11       0.0619
     31 H           1.2457   -0.1311    2.2221 H       1  UNL11       0.0636
     32 H           0.2084    0.4797   -1.2837 H       1  UNL11       0.1550
     33 H          -2.1013   -0.8585    3.4203 H       1  UNL11       0.0831
     34 H          -4.1116   -1.4007    2.0859 H       1  UNL11       0.0654
     35 H          -3.3006   -2.1253   -2.3205 H       1  UNL11       0.0624
     36 H          -5.2524   -2.6245   -3.6081 H       1  UNL11       0.0618
     37 H          -7.5181   -2.1701   -2.6771 H       1  UNL11       0.0618
     38 H          -7.7343   -1.2237   -0.4695 H       1  UNL11       0.0618
     39 H          -5.7360   -0.6996    0.8791 H       1  UNL11       0.0624
     40 H           2.3895   -0.3710   -1.8943 H       1  UNL11       0.0656
@<TRIPOS>BOND
     1     1     2    1
     2     1    25    1
     3     1    26    1
     4     1    27    1
     5     2     3    1
     6     2    28    1
     7     3     4    2
     8     3     5    2
     9     3     6    1
    10     6     7   ar
    11     7     8   ar
    12     7    29    1
    13     8     9   ar
    14     8    30    1
    15     9    10   ar
    16     9    31    1
    17    10    11    1
    18    10    24   ar
    19    11    12    1
    20    11    32    1
    21    12    13   ar
    22    13    14   ar
    23    14    15   ar
    24    14    33    1
    25    15    16   ar
    26    15    34    1
    27    16    17    1
    28    16    23   ar
    29    17    18   ar
    30    18    19   ar
    31    18    35    1
    32    19    20   ar
    33    19    36    1
    34    20    21   ar
    35    20    37    1
    36    21    22   ar
    37    21    38    1
    38    22    17   ar
    39    22    39    1
    40    23    12   ar
    41    24     6   ar
    42    24    40    1
@<TRIPOS>MOLECULE
*****
 40 42 0 0 0
SMALL
GASTEIGER

@<TRIPOS>ATOM
      1 C           7.0128   -1.3383   -0.6697 C.3     1  UNL11       0.0059
      2 N           6.2700   -0.8210   -1.7975 N.3     1  UNL11      -0.1930
      3 S           5.3169    0.5479   -1.3450 S.O2    1  UNL11       0.0582
      4 O           4.7156    1.0922   -2.6259 O.2     1  UNL11      -0.1531
      5 O           6.1413    1.5667   -0.6441 O.2     1  UNL11      -0.1531
      6 C           3.9997    0.0115   -0.3307 C.ar    1  UNL11       0.1070
      7 C           4.2428   -0.6175    0.8714 C.ar    1  UNL11      -0.0352
      8 C           3.2484   -1.0486    1.6872 C.ar    1  UNL11      -0.0582
      9 C           1.9266   -0.8365    1.2734 C.ar    1  UNL11      -0.0404
     10 C           1.6111   -0.2230    0.0993 C.ar    1  UNL11       0.0354
     11 N           0.2984   -0.0228   -0.3350 N.pl3   1  UNL11      -0.2836
     12 C          -0.9032   -0.3983    0.3246 C.ar    1  UNL11       0.2200
     13 N          -1.9971   -0.7093   -0.3669 N.ar    1  UNL11      -0.2226
     14 C          -3.1539   -1.0691    0.1934 C.ar    1  UNL11       0.0332
     15 C          -3.1827   -1.1110    1.5846 C.ar    1  UNL11      -0.0174
     16 C          -2.0712   -0.7961    2.3316 C.ar    1  UNL11       0.0760
     17 C          -2.0854   -0.8355    3.7969 C.ar    1  UNL11       0.0005
     18 C          -2.8853   -1.6867    4.4914 C.ar    1  UNL11      -0.0526
     19 C          -2.8908   -1.7159    5.8923 C.ar    1  UNL11      -0.0611
     20 C          -2.0716   -0.8674    6.5813 C.ar    1  UNL11      -0.0617
     21 C          -1.2458    0.0113    5.8800 C.ar    1  UNL11      -0.0611
     22 C          -1.2602    0.0193    4.4965 C.ar    1  UNL11      -0.0526
     23 N          -0.9470   -0.4438    1.6803 N.ar    1  UNL11      -0.2142
     24 C           2.6909    0.1966   -0.6934 C.ar    1  UNL11      -0.0141
     25 H           7.5386   -0.4700   -0.1829 H       1  UNL11       0.0405
     26 H           7.8202   -2.0069   -1.0199 H       1  UNL11       0.0405
     27 H           6.3587   -1.7923    0.0974 H       1  UNL11       0.0405
     28 H           6.9771   -0.4951   -2.4968 H       1  UNL11       0.1477
     29 H           5.2656   -0.7749    1.1787 H       1  UNL11       0.0637
     30 H           3.3967   -1.5449    2.6353 H       1  UNL11       0.0619
     31 H           1.1662   -1.1916    1.9734 H       1  UNL11       0.0636
     32 H           0.2084    0.4797   -1.2837 H       1  UNL11       0.1550
     33 H          -4.0454   -1.3221   -0.3851 H       1  UNL11       0.0831
     34 H          -4.1116   -1.4011    2.0857 H       1  UNL11       0.0654
     35 H          -3.5477   -2.3742    4.0136 H       1  UNL11       0.0624
     36 H          -3.5354   -2.4012    6.4044 H       1  UNL11       0.0618
     37 H          -2.0440   -0.8563    7.6676 H       1  UNL11       0.0618
     38 H          -0.6113    0.6677    6.4674 H       1  UNL11       0.0618
     39 H          -0.6054    0.7151    4.0007 H       1  UNL11       0.0624
     40 H           2.4680    0.6921   -1.6415 H       1  UNL11       0.0656
@<TRIPOS>BOND
     1     1     2    1
     2     1    25    1
     3     1    26    1
     4     1    27    1
     5     2     3    1
     6     2    28    1
     7     3     4    2
     8     3     5    2
     9     3     6    1
    10     6     7   ar
    11     7     8   ar
    12     7    29    1
    13     8     9   ar
    14     8    30    1
    15     9    10   ar
    16     9    31    1
    17    10    11    1
    18    10    24   ar
    19    11    12    1
    20    11    32    1
    21    12    13   ar
    22    13    14   ar
    23    14    15   ar
    24    14    33    1
    25    15    16   ar
    26    15    34    1
    27    16    17    1
    28    16    23   ar
    29    17    18   ar
    30    18    19   ar
    31    18    35    1
    32    19    20   ar
    33    19    36    1
    34    20    21   ar
    35    20    37    1
    36    21    22   ar
    37    21    38    1
    38    22    17   ar
    39    22    39    1
    40    23    12   ar
    41    24     6   ar
    42    24    40    1
@<TRIPOS>MOLECULE
*****
 40 42 0 0 0
SMALL
GASTEIGER

@<TRIPOS>ATOM
      1 C           1.1620   -3.1426    3.4843 C.3     1  UNL11       0.0059
      2 N           2.0962   -3.8492    2.6361 N.3     1  UNL11      -0.1930
      3 S           3.5452   -2.9363    2.4037 S.O2    1  UNL11       0.0582
      4 O           4.4983   -3.8345    1.6399 O.2     1  UNL11      -0.1531
      5 O           4.1180   -2.5000    3.7039 O.2     1  UNL11      -0.1531
      6 C           3.1913   -1.5592    1.3889 C.ar    1  UNL11       0.1070
      7 C           4.1813   -0.6686    1.0335 C.ar    1  UNL11      -0.0352
      8 C           3.9475    0.4122    0.2478 C.ar    1  UNL11      -0.0582
      9 C           2.6391    0.6143   -0.2115 C.ar    1  UNL11      -0.0404
     10 C           1.6111   -0.2230    0.0993 C.ar    1  UNL11       0.0354
     11 N           0.2984   -0.0228   -0.3350 N.pl3   1  UNL11      -0.2836
     12 C          -0.9032   -0.3983    0.3246 C.ar    1  UNL11       0.2200
     13 N          -0.9431   -1.4607    1.1254 N.ar    1  UNL11      -0.2226
     14 C          -2.0390   -1.8639    1.7721 C.ar    1  UNL11       0.0332
     15 C          -3.1898   -1.1058    1.5747 C.ar    1  UNL11      -0.0174
     16 C          -3.1854   -0.0015    0.7541 C.ar    1  UNL11       0.0760
     17 C          -4.3886    0.8070    0.5362 C.ar    1  UNL11       0.0005
     18 C          -4.3293    2.1390    0.2738 C.ar    1  UNL11      -0.0526
     19 C          -5.4860    2.9022    0.0671 C.ar    1  UNL11      -0.0611
     20 C          -6.7076    2.2942    0.1303 C.ar    1  UNL11      -0.0617
     21 C          -6.7820    0.9274    0.3989 C.ar    1  UNL11      -0.0611
     22 C          -5.6238    0.1974    0.5991 C.ar    1  UNL11      -0.0526
     23 N          -2.0334    0.3307    0.1422 N.ar    1  UNL11      -0.2142
     24 C           1.9271   -1.3201    0.9160 C.ar    1  UNL11      -0.0141
     25 H           1.7233   -2.8060    4.4002 H       1  UNL11       0.0405
     26 H           0.3870   -3.8364    3.8577 H       1  UNL11       0.0405
     27 H           0.7538   -2.2351    3.0026 H       1  UNL11       0.0405
     28 H           2.3552   -4.7271    3.1434 H       1  UNL11       0.1477
     29 H           5.1852   -0.8356    1.3939 H       1  UNL11       0.0637
     30 H           4.6944    1.1324   -0.0529 H       1  UNL11       0.0619
     31 H           2.5096    1.4916   -0.8501 H       1  UNL11       0.0636
     32 H           0.2084    0.4797   -1.2837 H       1  UNL11       0.1550
     33 H          -2.0593   -2.7380    2.4269 H       1  UNL11       0.0831
     34 H          -4.1115   -1.4009    2.0860 H       1  UNL11       0.0654
     35 H          -3.4073    2.6735    0.2111 H       1  UNL11       0.0624
     36 H          -5.3987    3.9500   -0.1373 H       1  UNL11       0.0618
     37 H          -7.6300    2.8478   -0.0234 H       1  UNL11       0.0618
     38 H          -7.7726    0.4854    0.4400 H       1  UNL11       0.0618
     39 H          -5.7328   -0.8539    0.8033 H       1  UNL11       0.0624
     40 H           1.1219   -2.0093    1.1819 H       1  UNL11       0.0656
@<TRIPOS>BOND
     1     1     2    1
     2     1    25    1
     3     1    26    1
     4     1    27    1
     5     2     3    1
     6     2    28    1
     7     3     4    2
     8     3     5    2
     9     3     6    1
    10     6     7   ar
    11     7     8   ar
    12     7    29    1
    13     8     9   ar
    14     8    30    1
    15     9    10   ar
    16     9    31    1
    17    10    11    1
    18    10    24   ar
    19    11    12    1
    20    11    32    1
    21    12    13   ar
    22    13    14   ar
    23    14    15   ar
    24    14    33    1
    25    15    16   ar
    26    15    34    1
    27    16    17    1
    28    16    23   ar
    29    17    18   ar
    30    18    19   ar
    31    18    35    1
    32    19    20   ar
    33    19    36    1
    34    20    21   ar
    35    20    37    1
    36    21    22   ar
    37    21    38    1
    38    22    17   ar
    39    22    39    1
    40    23    12   ar
    41    24     6   ar
    42    24    40    1
@<TRIPOS>MOLECULE
*****
 40 42 0 0 0
SMALL
GASTEIGER

@<TRIPOS>ATOM
      1 C           3.8868    2.1069    4.3527 C.3     1  UNL11       0.0059
      2 N           4.6023    0.8915    4.0327 N.3     1  UNL11      -0.1930
      3 S           3.5122   -0.4005    3.6724 S.O2    1  UNL11       0.0582
      4 O           2.2159   -0.0785    4.3897 O.2     1  UNL11      -0.1531
      5 O           4.0717   -1.7089    4.1013 O.2     1  UNL11      -0.1531
      6 C           3.1799   -0.4004    1.9575 C.ar    1  UNL11       0.1070
      7 C           4.1935   -0.5750    1.0400 C.ar    1  UNL11      -0.0352
      8 C           3.9769   -0.5813   -0.2991 C.ar    1  UNL11      -0.0582
      9 C           2.6618   -0.4015   -0.7484 C.ar    1  UNL11      -0.0404
     10 C           1.6111   -0.2230    0.0993 C.ar    1  UNL11       0.0354
     11 N           0.2984   -0.0228   -0.3350 N.pl3   1  UNL11      -0.2836
     12 C          -0.9032   -0.3983    0.3246 C.ar    1  UNL11       0.2200
     13 N          -2.0199    0.3096    0.1716 N.ar    1  UNL11      -0.2226
     14 C          -3.1781    0.0088    0.7630 C.ar    1  UNL11       0.0332
     15 C          -3.1827   -1.1178    1.5809 C.ar    1  UNL11      -0.0174
     16 C          -2.0472   -1.8731    1.7622 C.ar    1  UNL11       0.0760
     17 C          -2.0358   -3.0619    2.6199 C.ar    1  UNL11       0.0005
     18 C          -0.9142   -3.8037    2.8158 C.ar    1  UNL11      -0.0526
     19 C          -0.9148   -4.9384    3.6379 C.ar    1  UNL11      -0.0611
     20 C          -2.0719   -5.3117    4.2604 C.ar    1  UNL11      -0.0617
     21 C          -3.2301   -4.5585    4.0674 C.ar    1  UNL11      -0.0611
     22 C          -3.2017   -3.4424    3.2501 C.ar    1  UNL11      -0.0526
     23 N          -0.9235   -1.4940    1.1252 N.ar    1  UNL11      -0.2142
     24 C           1.9101   -0.2280    1.4708 C.ar    1  UNL11      -0.0141
     25 H           3.1234    2.2743    3.5426 H       1  UNL11       0.0405
     26 H           4.5672    2.9758    4.2941 H       1  UNL11       0.0405
     27 H           3.3351    2.0358    5.3081 H       1  UNL11       0.0405
     28 H           5.1539    1.0891    3.1657 H       1  UNL11       0.1477
     29 H           5.2022   -0.7125    1.3991 H       1  UNL11       0.0637
     30 H           4.7425   -0.7148   -1.0496 H       1  UNL11       0.0619
     31 H           2.5424   -0.4278   -1.8343 H       1  UNL11       0.0636
     32 H           0.2084    0.4797   -1.2837 H       1  UNL11       0.1550
     33 H          -4.0883    0.5978    0.6296 H       1  UNL11       0.0831
     34 H          -4.1117   -1.4009    2.0856 H       1  UNL11       0.0654
     35 H           0.0210   -3.5661    2.3591 H       1  UNL11       0.0624
     36 H          -0.0106   -5.4977    3.7678 H       1  UNL11       0.0618
     37 H          -2.1175   -6.1844    4.9063 H       1  UNL11       0.0618
     38 H          -4.1268   -4.8911    4.5810 H       1  UNL11       0.0618
     39 H          -4.1204   -2.8940    3.1325 H       1  UNL11       0.0624
     40 H           1.0865   -0.0870    2.1750 H       1  UNL11       0.0656
@<TRIPOS>BOND
     1     1     2    1
     2     1    25    1
     3     1    26    1
     4     1    27    1
     5     2     3    1
     6     2    28    1
     7     3     4    2
     8     3     5    2
     9     3     6    1
    10     6     7   ar
    11     7     8   ar
    12     7    29    1
    13     8     9   ar
    14     8    30    1
    15     9    10   ar
    16     9    31    1
    17    10    11    1
    18    10    24   ar
    19    11    12    1
    20    11    32    1
    21    12    13   ar
    22    13    14   ar
    23    14    15   ar
    24    14    33    1
    25    15    16   ar
    26    15    34    1
    27    16    17    1
    28    16    23   ar
    29    17    18   ar
    30    18    19   ar
    31    18    35    1
    32    19    20   ar
    33    19    36    1
    34    20    21   ar
    35    20    37    1
    36    21    22   ar
    37    21    38    1
    38    22    17   ar
    39    22    39    1
    40    23    12   ar
    41    24     6   ar
    42    24    40    1
@<TRIPOS>MOLECULE
*****
 40 42 0 0 0
SMALL
GASTEIGER

@<TRIPOS>ATOM
      1 C           6.9964    1.0164   -1.2001 C.3     1  UNL11       0.0059
      2 N           5.8797    0.6918   -2.0597 N.3     1  UNL11      -0.1930
      3 S           5.2074   -0.8490   -1.6580 S.O2    1  UNL11       0.0582
      4 O           6.3202   -1.6430   -1.0026 O.2     1  UNL11      -0.1531
      5 O           4.6765   -1.5332   -2.8658 O.2     1  UNL11      -0.1531
      6 C           3.9481   -0.6253   -0.4682 C.ar    1  UNL11       0.1070
      7 C           4.2329   -0.6637    0.8798 C.ar    1  UNL11      -0.0352
      8 C           3.2842   -0.4946    1.8345 C.ar    1  UNL11      -0.0582
      9 C           1.9663   -0.2731    1.4130 C.ar    1  UNL11      -0.0404
     10 C           1.6111   -0.2230    0.0993 C.ar    1  UNL11       0.0354
     11 N           0.2984   -0.0228   -0.3350 N.pl3   1  UNL11      -0.2836
     12 C          -0.9032   -0.3983    0.3246 C.ar    1  UNL11       0.2200
     13 N          -1.9971   -0.7093   -0.3669 N.ar    1  UNL11      -0.2226
     14 C          -3.1539   -1.0691    0.1934 C.ar    1  UNL11       0.0332
     15 C          -3.1827   -1.1110    1.5846 C.ar    1  UNL11      -0.0174
     16 C          -2.0712   -0.7961    2.3316 C.ar    1  UNL11       0.0760
     17 C          -2.0854   -0.8355    3.7969 C.ar    1  UNL11       0.0005
     18 C          -2.8853   -1.6867    4.4914 C.ar    1  UNL11      -0.0526
     19 C          -2.8908   -1.7159    5.8923 C.ar    1  UNL11      -0.0611
     20 C          -2.0716   -0.8674    6.5813 C.ar    1  UNL11      -0.0617
     21 C          -1.2458    0.0113    5.8800 C.ar    1  UNL11      -0.0611
     22 C          -1.2602    0.0193    4.4965 C.ar    1  UNL11      -0.0526
     23 N          -0.9470   -0.4438    1.6803 N.ar    1  UNL11      -0.2142
     24 C           2.6449   -0.4061   -0.8324 C.ar    1  UNL11      -0.0141
     25 H           6.6661    0.8485   -0.1371 H       1  UNL11       0.0405
     26 H           7.2260    2.0955   -1.2655 H       1  UNL11       0.0405
     27 H           7.8708    0.3627   -1.3747 H       1  UNL11       0.0405
     28 H           5.1437    1.4133   -1.8786 H       1  UNL11       0.1477
     29 H           5.2522   -0.8352    1.1915 H       1  UNL11       0.0637
     30 H           3.4661   -0.5176    2.8992 H       1  UNL11       0.0619
     31 H           1.2457   -0.1311    2.2221 H       1  UNL11       0.0636
     32 H           0.2084    0.4797   -1.2837 H       1  UNL11       0.1550
     33 H          -4.0454   -1.3221   -0.3851 H       1  UNL11       0.0831
     34 H          -4.1116   -1.4011    2.0857 H       1  UNL11       0.0654
     35 H          -3.5477   -2.3742    4.0136 H       1  UNL11       0.0624
     36 H          -3.5354   -2.4012    6.4044 H       1  UNL11       0.0618
     37 H          -2.0440   -0.8563    7.6676 H       1  UNL11       0.0618
     38 H          -0.6113    0.6677    6.4674 H       1  UNL11       0.0618
     39 H          -0.6054    0.7151    4.0007 H       1  UNL11       0.0624
     40 H           2.3895   -0.3710   -1.8943 H       1  UNL11       0.0656
@<TRIPOS>BOND
     1     1     2    1
     2     1    25    1
     3     1    26    1
     4     1    27    1
     5     2     3    1
     6     2    28    1
     7     3     4    2
     8     3     5    2
     9     3     6    1
    10     6     7   ar
    11     7     8   ar
    12     7    29    1
    13     8     9   ar
    14     8    30    1
    15     9    10   ar
    16     9    31    1
    17    10    11    1
    18    10    24   ar
    19    11    12    1
    20    11    32    1
    21    12    13   ar
    22    13    14   ar
    23    14    15   ar
    24    14    33    1
    25    15    16   ar
    26    15    34    1
    27    16    17    1
    28    16    23   ar
    29    17    18   ar
    30    18    19   ar
    31    18    35    1
    32    19    20   ar
    33    19    36    1
    34    20    21   ar
    35    20    37    1
    36    21    22   ar
    37    21    38    1
    38    22    17   ar
    39    22    39    1
    40    23    12   ar
    41    24     6   ar
    42    24    40    1
@<TRIPOS>MOLECULE
*****
 40 42 0 0 0
SMALL
GASTEIGER

@<TRIPOS>ATOM
      1 C           3.8868    2.1069    4.3527 C.3     1  UNL11       0.0059
      2 N           4.6023    0.8915    4.0327 N.3     1  UNL11      -0.1930
      3 S           3.5122   -0.4005    3.6724 S.O2    1  UNL11       0.0582
      4 O           2.2159   -0.0785    4.3897 O.2     1  UNL11      -0.1531
      5 O           4.0717   -1.7089    4.1013 O.2     1  UNL11      -0.1531
      6 C           3.1799   -0.4004    1.9575 C.ar    1  UNL11       0.1070
      7 C           4.1935   -0.5750    1.0400 C.ar    1  UNL11      -0.0352
      8 C           3.9769   -0.5813   -0.2991 C.ar    1  UNL11      -0.0582
      9 C           2.6618   -0.4015   -0.7484 C.ar    1  UNL11      -0.0404
     10 C           1.6111   -0.2230    0.0993 C.ar    1  UNL11       0.0354
     11 N           0.2984   -0.0228   -0.3350 N.pl3   1  UNL11      -0.2836
     12 C          -0.9032   -0.3983    0.3246 C.ar    1  UNL11       0.2200
     13 N          -0.9431   -1.4607    1.1254 N.ar    1  UNL11      -0.2226
     14 C          -2.0390   -1.8639    1.7721 C.ar    1  UNL11       0.0332
     15 C          -3.1898   -1.1058    1.5747 C.ar    1  UNL11      -0.0174
     16 C          -3.1854   -0.0015    0.7541 C.ar    1  UNL11       0.0760
     17 C          -4.3886    0.8070    0.5362 C.ar    1  UNL11       0.0005
     18 C          -5.3570    0.9347    1.4809 C.ar    1  UNL11      -0.0526
     19 C          -6.5033    1.7103    1.2618 C.ar    1  UNL11      -0.0611
     20 C          -6.6546    2.3563    0.0678 C.ar    1  UNL11      -0.0617
     21 C          -5.6675    2.2331   -0.9102 C.ar    1  UNL11      -0.0611
     22 C          -4.5454    1.4608   -0.6676 C.ar    1  UNL11      -0.0526
     23 N          -2.0334    0.3307    0.1422 N.ar    1  UNL11      -0.2142
     24 C           1.9101   -0.2280    1.4708 C.ar    1  UNL11      -0.0141
     25 H           3.1234    2.2743    3.5426 H       1  UNL11       0.0405
     26 H           4.5672    2.9758    4.2941 H       1  UNL11       0.0405
     27 H           3.3351    2.0358    5.3081 H       1  UNL11       0.0405
     28 H           5.1539    1.0891    3.1657 H       1  UNL11       0.1477
     29 H           5.2022   -0.7125    1.3991 H       1  UNL11       0.0637
     30 H           4.7425   -0.7148   -1.0496 H       1  UNL11       0.0619
     31 H           2.5424   -0.4278   -1.8343 H       1  UNL11       0.0636
     32 H           0.2084    0.4797   -1.2837 H       1  UNL11       0.1550
     33 H          -2.0593   -2.7380    2.4269 H       1  UNL11       0.0831
     34 H          -4.1115   -1.4009    2.0860 H       1  UNL11       0.0654
     35 H          -5.2996    0.4564    2.4335 H       1  UNL11       0.0624
     36 H          -7.2450    1.7868    2.0309 H       1  UNL11       0.0618
     37 H          -7.5274    2.9679   -0.1445 H       1  UNL11       0.0618
     38 H          -5.8284    2.7633   -1.8438 H       1  UNL11       0.0618
     39 H          -3.8120    1.3966   -1.4529 H       1  UNL11       0.0624
     40 H           1.0865   -0.0870    2.1750 H       1  UNL11       0.0656
@<TRIPOS>BOND
     1     1     2    1
     2     1    25    1
     3     1    26    1
     4     1    27    1
     5     2     3    1
     6     2    28    1
     7     3     4    2
     8     3     5    2
     9     3     6    1
    10     6     7   ar
    11     7     8   ar
    12     7    29    1
    13     8     9   ar
    14     8    30    1
    15     9    10   ar
    16     9    31    1
    17    10    11    1
    18    10    24   ar
    19    11    12    1
    20    11    32    1
    21    12    13   ar
    22    13    14   ar
    23    14    15   ar
    24    14    33    1
    25    15    16   ar
    26    15    34    1
    27    16    17    1
    28    16    23   ar
    29    17    18   ar
    30    18    19   ar
    31    18    35    1
    32    19    20   ar
    33    19    36    1
    34    20    21   ar
    35    20    37    1
    36    21    22   ar
    37    21    38    1
    38    22    17   ar
    39    22    39    1
    40    23    12   ar
    41    24     6   ar
    42    24    40    1
@<TRIPOS>MOLECULE
*****
 40 42 0 0 0
SMALL
GASTEIGER

@<TRIPOS>ATOM
      1 C           1.4340   -4.1107    1.3773 C.3     1  UNL11       0.0059
      2 N           2.0962   -3.8492    2.6361 N.3     1  UNL11      -0.1930
      3 S           3.5452   -2.9363    2.4037 S.O2    1  UNL11       0.0582
      4 O           4.4983   -3.8345    1.6399 O.2     1  UNL11      -0.1531
      5 O           4.1180   -2.5000    3.7039 O.2     1  UNL11      -0.1531
      6 C           3.1913   -1.5592    1.3889 C.ar    1  UNL11       0.1070
      7 C           4.1813   -0.6686    1.0335 C.ar    1  UNL11      -0.0352
      8 C           3.9475    0.4122    0.2478 C.ar    1  UNL11      -0.0582
      9 C           2.6391    0.6143   -0.2115 C.ar    1  UNL11      -0.0404
     10 C           1.6111   -0.2230    0.0993 C.ar    1  UNL11       0.0354
     11 N           0.2984   -0.0228   -0.3350 N.pl3   1  UNL11      -0.2836
     12 C          -0.9032   -0.3983    0.3246 C.ar    1  UNL11       0.2200
     13 N          -0.9654   -0.4633    1.6525 N.ar    1  UNL11      -0.2226
     14 C          -2.0626   -0.8088    2.3297 C.ar    1  UNL11       0.0332
     15 C          -3.1897   -1.1124    1.5711 C.ar    1  UNL11      -0.0174
     16 C          -3.1619   -1.0558    0.1967 C.ar    1  UNL11       0.0760
     17 C          -4.3401   -1.3724   -0.6160 C.ar    1  UNL11       0.0005
     18 C          -5.2876   -2.2559   -0.2058 C.ar    1  UNL11      -0.0526
     19 C          -6.4099   -2.5511   -0.9910 C.ar    1  UNL11      -0.0611
     20 C          -6.5587   -1.9362   -2.2016 C.ar    1  UNL11      -0.0617
     21 C          -5.5930   -1.0272   -2.6341 C.ar    1  UNL11      -0.0611
     22 C          -4.4942   -0.7541   -1.8388 C.ar    1  UNL11      -0.0526
     23 N          -2.0104   -0.6973   -0.4012 N.ar    1  UNL11      -0.2142
     24 C           1.9271   -1.3201    0.9160 C.ar    1  UNL11      -0.0141
     25 H           1.3557   -3.1325    0.8257 H       1  UNL11       0.0405
     26 H           0.3903   -4.4279    1.5549 H       1  UNL11       0.0405
     27 H           2.0068   -4.8017    0.7318 H       1  UNL11       0.0405
     28 H           1.4409   -3.2613    3.2018 H       1  UNL11       0.1477
     29 H           5.1852   -0.8356    1.3939 H       1  UNL11       0.0637
     30 H           4.6944    1.1324   -0.0529 H       1  UNL11       0.0619
     31 H           2.5096    1.4916   -0.8501 H       1  UNL11       0.0636
     32 H           0.2084    0.4797   -1.2837 H       1  UNL11       0.1550
     33 H          -2.1013   -0.8585    3.4203 H       1  UNL11       0.0831
     34 H          -4.1116   -1.4007    2.0859 H       1  UNL11       0.0654
     35 H          -5.2307   -2.7696    0.7283 H       1  UNL11       0.0624
     36 H          -7.1355   -3.2534   -0.6335 H       1  UNL11       0.0618
     37 H          -7.4132   -2.1355   -2.8426 H       1  UNL11       0.0618
     38 H          -5.7510   -0.5620   -3.6021 H       1  UNL11       0.0618
     39 H          -3.7766   -0.0457   -2.2157 H       1  UNL11       0.0624
     40 H           1.1219   -2.0093    1.1819 H       1  UNL11       0.0656
@<TRIPOS>BOND
     1     1     2    1
     2     1    25    1
     3     1    26    1
     4     1    27    1
     5     2     3    1
     6     2    28    1
     7     3     4    2
     8     3     5    2
     9     3     6    1
    10     6     7   ar
    11     7     8   ar
    12     7    29    1
    13     8     9   ar
    14     8    30    1
    15     9    10   ar
    16     9    31    1
    17    10    11    1
    18    10    24   ar
    19    11    12    1
    20    11    32    1
    21    12    13   ar
    22    13    14   ar
    23    14    15   ar
    24    14    33    1
    25    15    16   ar
    26    15    34    1
    27    16    17    1
    28    16    23   ar
    29    17    18   ar
    30    18    19   ar
    31    18    35    1
    32    19    20   ar
    33    19    36    1
    34    20    21   ar
    35    20    37    1
    36    21    22   ar
    37    21    38    1
    38    22    17   ar
    39    22    39    1
    40    23    12   ar
    41    24     6   ar
    42    24    40    1
@<TRIPOS>MOLECULE
*****
 40 42 0 0 0
SMALL
GASTEIGER

@<TRIPOS>ATOM
      1 C           4.1271    3.7656    0.6996 C.3     1  UNL11       0.0059
      2 N           5.2876    2.9042    0.7499 N.3     1  UNL11      -0.1930
      3 S           5.1750    1.6333   -0.4160 S.O2    1  UNL11       0.0582
      4 O           6.5016    0.9002   -0.3784 O.2     1  UNL11      -0.1531
      5 O           4.8787    2.1721   -1.7691 O.2     1  UNL11      -0.1531
      6 C           3.9370    0.5090    0.0884 C.ar    1  UNL11       0.1070
      7 C           4.2448   -0.5720    0.8862 C.ar    1  UNL11      -0.0352
      8 C           3.3130   -1.4671    1.2992 C.ar    1  UNL11      -0.0582
      9 C           1.9885   -1.2674    0.8874 C.ar    1  UNL11      -0.0404
     10 C           1.6111   -0.2230    0.0993 C.ar    1  UNL11       0.0354
     11 N           0.2984   -0.0228   -0.3350 N.pl3   1  UNL11      -0.2836
     12 C          -0.9032   -0.3983    0.3246 C.ar    1  UNL11       0.2200
     13 N          -1.9971   -0.7093   -0.3669 N.ar    1  UNL11      -0.2226
     14 C          -3.1539   -1.0691    0.1934 C.ar    1  UNL11       0.0332
     15 C          -3.1827   -1.1110    1.5846 C.ar    1  UNL11      -0.0174
     16 C          -2.0712   -0.7961    2.3316 C.ar    1  UNL11       0.0760
     17 C          -2.0854   -0.8355    3.7969 C.ar    1  UNL11       0.0005
     18 C          -1.3100   -0.0136    4.5517 C.ar    1  UNL11      -0.0526
     19 C          -1.3316   -0.0599    5.9520 C.ar    1  UNL11      -0.0611
     20 C          -2.1528   -0.9540    6.5782 C.ar    1  UNL11      -0.0617
     21 C          -2.9538   -1.8032    5.8146 C.ar    1  UNL11      -0.0611
     22 C          -2.9128   -1.7365    4.4332 C.ar    1  UNL11      -0.0526
     23 N          -0.9470   -0.4438    1.6803 N.ar    1  UNL11      -0.2142
     24 C           2.6283    0.6628   -0.2893 C.ar    1  UNL11      -0.0141
     25 H           3.9644    4.0530   -0.3765 H       1  UNL11       0.0405
     26 H           4.3350    4.7154    1.2253 H       1  UNL11       0.0405
     27 H           3.2065    3.2582    1.0423 H       1  UNL11       0.0405
     28 H           6.1107    3.4965    0.4914 H       1  UNL11       0.1477
     29 H           5.2689   -0.7146    1.1965 H       1  UNL11       0.0637
     30 H           3.5131   -2.3258    1.9235 H       1  UNL11       0.0619
     31 H           1.2779   -2.0099    1.2587 H       1  UNL11       0.0636
     32 H           0.2084    0.4797   -1.2837 H       1  UNL11       0.1550
     33 H          -4.0454   -1.3221   -0.3851 H       1  UNL11       0.0831
     34 H          -4.1116   -1.4011    2.0857 H       1  UNL11       0.0654
     35 H          -0.6475    0.7064    4.1247 H       1  UNL11       0.0624
     36 H          -0.7057    0.6043    6.5128 H       1  UNL11       0.0618
     37 H          -2.2011   -1.0239    7.6616 H       1  UNL11       0.0618
     38 H          -3.5909   -2.4978    6.3532 H       1  UNL11       0.0618
     39 H          -3.5491   -2.4122    3.8879 H       1  UNL11       0.0624
     40 H           2.3549    1.5107   -0.9221 H       1  UNL11       0.0656
@<TRIPOS>BOND
     1     1     2    1
     2     1    25    1
     3     1    26    1
     4     1    27    1
     5     2     3    1
     6     2    28    1
     7     3     4    2
     8     3     5    2
     9     3     6    1
    10     6     7   ar
    11     7     8   ar
    12     7    29    1
    13     8     9   ar
    14     8    30    1
    15     9    10   ar
    16     9    31    1
    17    10    11    1
    18    10    24   ar
    19    11    12    1
    20    11    32    1
    21    12    13   ar
    22    13    14   ar
    23    14    15   ar
    24    14    33    1
    25    15    16   ar
    26    15    34    1
    27    16    17    1
    28    16    23   ar
    29    17    18   ar
    30    18    19   ar
    31    18    35    1
    32    19    20   ar
    33    19    36    1
    34    20    21   ar
    35    20    37    1
    36    21    22   ar
    37    21    38    1
    38    22    17   ar
    39    22    39    1
    40    23    12   ar
    41    24     6   ar
    42    24    40    1
@<TRIPOS>MOLECULE
*****
 40 42 0 0 0
SMALL
GASTEIGER

@<TRIPOS>ATOM
      1 C           4.0359    2.3550   -2.6681 C.3     1  UNL11       0.0059
      2 N           4.4502    2.8699   -1.3817 N.3     1  UNL11      -0.1930
      3 S           5.1750    1.6333   -0.4160 S.O2    1  UNL11       0.0582
      4 O           5.7053    2.3184    0.8281 O.2     1  UNL11      -0.1531
      5 O           6.2517    0.9321   -1.1631 O.2     1  UNL11      -0.1531
      6 C           3.9370    0.5090    0.0884 C.ar    1  UNL11       0.1070
      7 C           4.2448   -0.5720    0.8862 C.ar    1  UNL11      -0.0352
      8 C           3.3130   -1.4671    1.2992 C.ar    1  UNL11      -0.0582
      9 C           1.9885   -1.2674    0.8874 C.ar    1  UNL11      -0.0404
     10 C           1.6111   -0.2230    0.0993 C.ar    1  UNL11       0.0354
     11 N           0.2984   -0.0228   -0.3350 N.pl3   1  UNL11      -0.2836
     12 C          -0.9032   -0.3983    0.3246 C.ar    1  UNL11       0.2200
     13 N          -1.9971   -0.7093   -0.3669 N.ar    1  UNL11      -0.2226
     14 C          -3.1539   -1.0691    0.1934 C.ar    1  UNL11       0.0332
     15 C          -3.1827   -1.1110    1.5846 C.ar    1  UNL11      -0.0174
     16 C          -2.0712   -0.7961    2.3316 C.ar    1  UNL11       0.0760
     17 C          -2.0854   -0.8355    3.7969 C.ar    1  UNL11       0.0005
     18 C          -1.3100   -0.0136    4.5517 C.ar    1  UNL11      -0.0526
     19 C          -1.3316   -0.0599    5.9520 C.ar    1  UNL11      -0.0611
     20 C          -2.1528   -0.9540    6.5782 C.ar    1  UNL11      -0.0617
     21 C          -2.9538   -1.8032    5.8146 C.ar    1  UNL11      -0.0611
     22 C          -2.9128   -1.7365    4.4332 C.ar    1  UNL11      -0.0526
     23 N          -0.9470   -0.4438    1.6803 N.ar    1  UNL11      -0.2142
     24 C           2.6283    0.6628   -0.2893 C.ar    1  UNL11      -0.0141
     25 H           4.9071    1.7910   -3.1041 H       1  UNL11       0.0405
     26 H           3.8495    3.1884   -3.3696 H       1  UNL11       0.0405
     27 H           3.1950    1.6416   -2.5890 H       1  UNL11       0.0405
     28 H           5.1837    3.5919   -1.5712 H       1  UNL11       0.1477
     29 H           5.2689   -0.7146    1.1965 H       1  UNL11       0.0637
     30 H           3.5131   -2.3258    1.9235 H       1  UNL11       0.0619
     31 H           1.2779   -2.0099    1.2587 H       1  UNL11       0.0636
     32 H           0.2084    0.4797   -1.2837 H       1  UNL11       0.1550
     33 H          -4.0454   -1.3221   -0.3851 H       1  UNL11       0.0831
     34 H          -4.1116   -1.4011    2.0857 H       1  UNL11       0.0654
     35 H          -0.6475    0.7064    4.1247 H       1  UNL11       0.0624
     36 H          -0.7057    0.6043    6.5128 H       1  UNL11       0.0618
     37 H          -2.2011   -1.0239    7.6616 H       1  UNL11       0.0618
     38 H          -3.5909   -2.4978    6.3532 H       1  UNL11       0.0618
     39 H          -3.5491   -2.4122    3.8879 H       1  UNL11       0.0624
     40 H           2.3549    1.5107   -0.9221 H       1  UNL11       0.0656
@<TRIPOS>BOND
     1     1     2    1
     2     1    25    1
     3     1    26    1
     4     1    27    1
     5     2     3    1
     6     2    28    1
     7     3     4    2
     8     3     5    2
     9     3     6    1
    10     6     7   ar
    11     7     8   ar
    12     7    29    1
    13     8     9   ar
    14     8    30    1
    15     9    10   ar
    16     9    31    1
    17    10    11    1
    18    10    24   ar
    19    11    12    1
    20    11    32    1
    21    12    13   ar
    22    13    14   ar
    23    14    15   ar
    24    14    33    1
    25    15    16   ar
    26    15    34    1
    27    16    17    1
    28    16    23   ar
    29    17    18   ar
    30    18    19   ar
    31    18    35    1
    32    19    20   ar
    33    19    36    1
    34    20    21   ar
    35    20    37    1
    36    21    22   ar
    37    21    38    1
    38    22    17   ar
    39    22    39    1
    40    23    12   ar
    41    24     6   ar
    42    24    40    1
@<TRIPOS>MOLECULE
*****
 40 42 0 0 0
SMALL
GASTEIGER

@<TRIPOS>ATOM
      1 C           3.2794   -1.3508    4.4787 C.3     1  UNL11       0.0059
      2 N           4.1397   -2.3734    3.9259 N.3     1  UNL11      -0.1930
      3 S           3.5452   -2.9363    2.4037 S.O2    1  UNL11       0.0582
      4 O           2.2344   -3.6417    2.6912 O.2     1  UNL11      -0.1531
      5 O           4.5263   -3.8381    1.7457 O.2     1  UNL11      -0.1531
      6 C           3.1913   -1.5592    1.3889 C.ar    1  UNL11       0.1070
      7 C           4.1813   -0.6686    1.0335 C.ar    1  UNL11      -0.0352
      8 C           3.9475    0.4122    0.2478 C.ar    1  UNL11      -0.0582
      9 C           2.6391    0.6143   -0.2115 C.ar    1  UNL11      -0.0404
     10 C           1.6111   -0.2230    0.0993 C.ar    1  UNL11       0.0354
     11 N           0.2984   -0.0228   -0.3350 N.pl3   1  UNL11      -0.2836
     12 C          -0.9032   -0.3983    0.3246 C.ar    1  UNL11       0.2200
     13 N          -0.9654   -0.4633    1.6525 N.ar    1  UNL11      -0.2226
     14 C          -2.0626   -0.8088    2.3297 C.ar    1  UNL11       0.0332
     15 C          -3.1897   -1.1124    1.5711 C.ar    1  UNL11      -0.0174
     16 C          -3.1619   -1.0558    0.1967 C.ar    1  UNL11       0.0760
     17 C          -4.3401   -1.3724   -0.6160 C.ar    1  UNL11       0.0005
     18 C          -4.3155   -1.3337   -1.9741 C.ar    1  UNL11      -0.0526
     19 C          -5.4478   -1.6383   -2.7412 C.ar    1  UNL11      -0.0611
     20 C          -6.6090   -1.9836   -2.1102 C.ar    1  UNL11      -0.0617
     21 C          -6.6472   -2.0270   -0.7165 C.ar    1  UNL11      -0.0611
     22 C          -5.5143   -1.7214    0.0168 C.ar    1  UNL11      -0.0526
     23 N          -2.0104   -0.6973   -0.4012 N.ar    1  UNL11      -0.2142
     24 C           1.9271   -1.3201    0.9160 C.ar    1  UNL11      -0.0141
     25 H           3.0975   -0.5878    3.6713 H       1  UNL11       0.0405
     26 H           3.8060   -0.8035    5.2816 H       1  UNL11       0.0405
     27 H           2.2915   -1.7447    4.7808 H       1  UNL11       0.0405
     28 H           5.0680   -1.9220    3.7540 H       1  UNL11       0.1477
     29 H           5.1852   -0.8356    1.3939 H       1  UNL11       0.0637
     30 H           4.6944    1.1324   -0.0529 H       1  UNL11       0.0619
     31 H           2.5096    1.4916   -0.8501 H       1  UNL11       0.0636
     32 H           0.2084    0.4797   -1.2837 H       1  UNL11       0.1550
     33 H          -2.1013   -0.8585    3.4203 H       1  UNL11       0.0831
     34 H          -4.1116   -1.4007    2.0859 H       1  UNL11       0.0654
     35 H          -3.4409   -1.0717   -2.5275 H       1  UNL11       0.0624
     36 H          -5.3894   -1.5966   -3.8100 H       1  UNL11       0.0618
     37 H          -7.5106   -2.2273   -2.6657 H       1  UNL11       0.0618
     38 H          -7.5902   -2.3062   -0.2567 H       1  UNL11       0.0618
     39 H          -5.5936   -1.7690    1.0893 H       1  UNL11       0.0624
     40 H           1.1219   -2.0093    1.1819 H       1  UNL11       0.0656
@<TRIPOS>BOND
     1     1     2    1
     2     1    25    1
     3     1    26    1
     4     1    27    1
     5     2     3    1
     6     2    28    1
     7     3     4    2
     8     3     5    2
     9     3     6    1
    10     6     7   ar
    11     7     8   ar
    12     7    29    1
    13     8     9   ar
    14     8    30    1
    15     9    10   ar
    16     9    31    1
    17    10    11    1
    18    10    24   ar
    19    11    12    1
    20    11    32    1
    21    12    13   ar
    22    13    14   ar
    23    14    15   ar
    24    14    33    1
    25    15    16   ar
    26    15    34    1
    27    16    17    1
    28    16    23   ar
    29    17    18   ar
    30    18    19   ar
    31    18    35    1
    32    19    20   ar
    33    19    36    1
    34    20    21   ar
    35    20    37    1
    36    21    22   ar
    37    21    38    1
    38    22    17   ar
    39    22    39    1
    40    23    12   ar
    41    24     6   ar
    42    24    40    1
@<TRIPOS>MOLECULE
*****
 40 42 0 0 0
SMALL
GASTEIGER

@<TRIPOS>ATOM
      1 C           2.6385    1.8965    4.5946 C.3     1  UNL11       0.0059
      2 N           3.8461    1.2178    4.1793 N.3     1  UNL11      -0.1930
      3 S           3.5122   -0.4005    3.6724 S.O2    1  UNL11       0.0582
      4 O           2.2406   -0.8177    4.3849 O.2     1  UNL11      -0.1531
      5 O           4.6470   -1.3063    3.9898 O.2     1  UNL11      -0.1531
      6 C           3.1799   -0.4004    1.9575 C.ar    1  UNL11       0.1070
      7 C           4.1935   -0.5750    1.0400 C.ar    1  UNL11      -0.0352
      8 C           3.9769   -0.5813   -0.2991 C.ar    1  UNL11      -0.0582
      9 C           2.6618   -0.4015   -0.7484 C.ar    1  UNL11      -0.0404
     10 C           1.6111   -0.2230    0.0993 C.ar    1  UNL11       0.0354
     11 N           0.2984   -0.0228   -0.3350 N.pl3   1  UNL11      -0.2836
     12 C          -0.9032   -0.3983    0.3246 C.ar    1  UNL11       0.2200
     13 N          -0.9654   -0.4633    1.6525 N.ar    1  UNL11      -0.2226
     14 C          -2.0626   -0.8088    2.3297 C.ar    1  UNL11       0.0332
     15 C          -3.1897   -1.1124    1.5711 C.ar    1  UNL11      -0.0174
     16 C          -3.1619   -1.0558    0.1967 C.ar    1  UNL11       0.0760
     17 C          -4.3401   -1.3724   -0.6160 C.ar    1  UNL11       0.0005
     18 C          -4.5649   -0.7915   -1.8237 C.ar    1  UNL11      -0.0526
     19 C          -5.6947   -1.1016   -2.5924 C.ar    1  UNL11      -0.0611
     20 C          -6.5962   -2.0116   -2.1179 C.ar    1  UNL11      -0.0617
     21 C          -6.3767   -2.6150   -0.8795 C.ar    1  UNL11      -0.0611
     22 C          -5.2526   -2.2904   -0.1409 C.ar    1  UNL11      -0.0526
     23 N          -2.0104   -0.6973   -0.4012 N.ar    1  UNL11      -0.2142
     24 C           1.9101   -0.2280    1.4708 C.ar    1  UNL11      -0.0141
     25 H           1.8703    1.7475    3.7854 H       1  UNL11       0.0405
     26 H           2.8097    2.9876    4.6348 H       1  UNL11       0.0405
     27 H           2.2143    1.4768    5.5253 H       1  UNL11       0.0405
     28 H           4.2110    1.7390    3.3484 H       1  UNL11       0.1477
     29 H           5.2022   -0.7125    1.3991 H       1  UNL11       0.0637
     30 H           4.7425   -0.7148   -1.0496 H       1  UNL11       0.0619
     31 H           2.5424   -0.4278   -1.8343 H       1  UNL11       0.0636
     32 H           0.2084    0.4797   -1.2837 H       1  UNL11       0.1550
     33 H          -2.1013   -0.8585    3.4203 H       1  UNL11       0.0831
     34 H          -4.1116   -1.4007    2.0859 H       1  UNL11       0.0654
     35 H          -3.9002   -0.0735   -2.2506 H       1  UNL11       0.0624
     36 H          -5.8375   -0.6227   -3.5398 H       1  UNL11       0.0618
     37 H          -7.4857   -2.2816   -2.6807 H       1  UNL11       0.0618
     38 H          -7.1183   -3.3319   -0.5411 H       1  UNL11       0.0618
     39 H          -5.1274   -2.7824    0.8082 H       1  UNL11       0.0624
     40 H           1.0865   -0.0870    2.1750 H       1  UNL11       0.0656
@<TRIPOS>BOND
     1     1     2    1
     2     1    25    1
     3     1    26    1
     4     1    27    1
     5     2     3    1
     6     2    28    1
     7     3     4    2
     8     3     5    2
     9     3     6    1
    10     6     7   ar
    11     7     8   ar
    12     7    29    1
    13     8     9   ar
    14     8    30    1
    15     9    10   ar
    16     9    31    1
    17    10    11    1
    18    10    24   ar
    19    11    12    1
    20    11    32    1
    21    12    13   ar
    22    13    14   ar
    23    14    15   ar
    24    14    33    1
    25    15    16   ar
    26    15    34    1
    27    16    17    1
    28    16    23   ar
    29    17    18   ar
    30    18    19   ar
    31    18    35    1
    32    19    20   ar
    33    19    36    1
    34    20    21   ar
    35    20    37    1
    36    21    22   ar
    37    21    38    1
    38    22    17   ar
    39    22    39    1
    40    23    12   ar
    41    24     6   ar
    42    24    40    1
@<TRIPOS>MOLECULE
*****
 40 42 0 0 0
SMALL
GASTEIGER

@<TRIPOS>ATOM
      1 C           4.8044    0.7864   -2.8728 C.3     1  UNL11       0.0059
      2 N           5.8441    1.0952   -1.9161 N.3     1  UNL11      -0.1930
      3 S           5.1750    1.6333   -0.4160 S.O2    1  UNL11       0.0582
      4 O           4.4995    2.9603   -0.7010 O.2     1  UNL11      -0.1531
      5 O           6.2279    1.7606    0.6252 O.2     1  UNL11      -0.1531
      6 C           3.9370    0.5090    0.0884 C.ar    1  UNL11       0.1070
      7 C           4.2448   -0.5720    0.8862 C.ar    1  UNL11      -0.0352
      8 C           3.3130   -1.4671    1.2992 C.ar    1  UNL11      -0.0582
      9 C           1.9885   -1.2674    0.8874 C.ar    1  UNL11      -0.0404
     10 C           1.6111   -0.2230    0.0993 C.ar    1  UNL11       0.0354
     11 N           0.2984   -0.0228   -0.3350 N.pl3   1  UNL11      -0.2836
     12 C          -0.9032   -0.3983    0.3246 C.ar    1  UNL11       0.2200
     13 N          -1.9971   -0.7093   -0.3669 N.ar    1  UNL11      -0.2226
     14 C          -3.1539   -1.0691    0.1934 C.ar    1  UNL11       0.0332
     15 C          -3.1827   -1.1110    1.5846 C.ar    1  UNL11      -0.0174
     16 C          -2.0712   -0.7961    2.3316 C.ar    1  UNL11       0.0760
     17 C          -2.0854   -0.8355    3.7969 C.ar    1  UNL11       0.0005
     18 C          -3.2128   -0.5981    4.5175 C.ar    1  UNL11      -0.0526
     19 C          -3.2150   -0.6384    5.9181 C.ar    1  UNL11      -0.0611
     20 C          -2.0546   -0.9236    6.5800 C.ar    1  UNL11      -0.0617
     21 C          -0.8905   -1.1692    5.8517 C.ar    1  UNL11      -0.0611
     22 C          -0.9163   -1.1229    4.4691 C.ar    1  UNL11      -0.0526
     23 N          -0.9470   -0.4438    1.6803 N.ar    1  UNL11      -0.2142
     24 C           2.6283    0.6628   -0.2893 C.ar    1  UNL11      -0.0141
     25 H           4.0594    0.1165   -2.3596 H       1  UNL11       0.0405
     26 H           5.2165    0.1813   -3.7008 H       1  UNL11       0.0405
     27 H           4.2549    1.6854   -3.2076 H       1  UNL11       0.0405
     28 H           6.3544    0.2007   -1.7304 H       1  UNL11       0.1477
     29 H           5.2689   -0.7146    1.1965 H       1  UNL11       0.0637
     30 H           3.5131   -2.3258    1.9235 H       1  UNL11       0.0619
     31 H           1.2779   -2.0099    1.2587 H       1  UNL11       0.0636
     32 H           0.2084    0.4797   -1.2837 H       1  UNL11       0.1550
     33 H          -4.0454   -1.3221   -0.3851 H       1  UNL11       0.0831
     34 H          -4.1116   -1.4011    2.0857 H       1  UNL11       0.0654
     35 H          -4.1508   -0.3699    4.0617 H       1  UNL11       0.0624
     36 H          -4.1238   -0.4456    6.4513 H       1  UNL11       0.0618
     37 H          -2.0110   -0.9651    7.6650 H       1  UNL11       0.0618
     38 H           0.0086   -1.3916    6.4179 H       1  UNL11       0.0618
     39 H           0.0070   -1.3194    3.9519 H       1  UNL11       0.0624
     40 H           2.3549    1.5107   -0.9221 H       1  UNL11       0.0656
@<TRIPOS>BOND
     1     1     2    1
     2     1    25    1
     3     1    26    1
     4     1    27    1
     5     2     3    1
     6     2    28    1
     7     3     4    2
     8     3     5    2
     9     3     6    1
    10     6     7   ar
    11     7     8   ar
    12     7    29    1
    13     8     9   ar
    14     8    30    1
    15     9    10   ar
    16     9    31    1
    17    10    11    1
    18    10    24   ar
    19    11    12    1
    20    11    32    1
    21    12    13   ar
    22    13    14   ar
    23    14    15   ar
    24    14    33    1
    25    15    16   ar
    26    15    34    1
    27    16    17    1
    28    16    23   ar
    29    17    18   ar
    30    18    19   ar
    31    18    35    1
    32    19    20   ar
    33    19    36    1
    34    20    21   ar
    35    20    37    1
    36    21    22   ar
    37    21    38    1
    38    22    17   ar
    39    22    39    1
    40    23    12   ar
    41    24     6   ar
    42    24    40    1
@<TRIPOS>MOLECULE
*****
 40 42 0 0 0
SMALL
GASTEIGER

@<TRIPOS>ATOM
      1 C           6.9964    1.0164   -1.2001 C.3     1  UNL11       0.0059
      2 N           5.8797    0.6918   -2.0597 N.3     1  UNL11      -0.1930
      3 S           5.2074   -0.8490   -1.6580 S.O2    1  UNL11       0.0582
      4 O           6.3202   -1.6430   -1.0026 O.2     1  UNL11      -0.1531
      5 O           4.6765   -1.5332   -2.8658 O.2     1  UNL11      -0.1531
      6 C           3.9481   -0.6253   -0.4682 C.ar    1  UNL11       0.1070
      7 C           4.2329   -0.6637    0.8798 C.ar    1  UNL11      -0.0352
      8 C           3.2842   -0.4946    1.8345 C.ar    1  UNL11      -0.0582
      9 C           1.9663   -0.2731    1.4130 C.ar    1  UNL11      -0.0404
     10 C           1.6111   -0.2230    0.0993 C.ar    1  UNL11       0.0354
     11 N           0.2984   -0.0228   -0.3350 N.pl3   1  UNL11      -0.2836
     12 C          -0.9032   -0.3983    0.3246 C.ar    1  UNL11       0.2200
     13 N          -0.8746   -1.0196    1.5013 N.ar    1  UNL11      -0.2226
     14 C          -1.9665   -1.3972    2.1697 C.ar    1  UNL11       0.0332
     15 C          -3.1903   -1.1087    1.5722 C.ar    1  UNL11      -0.0174
     16 C          -3.2579   -0.4677    0.3567 C.ar    1  UNL11       0.0760
     17 C          -4.5385   -0.1568   -0.2854 C.ar    1  UNL11       0.0005
     18 C          -5.6683    0.0847    0.4299 C.ar    1  UNL11      -0.0526
     19 C          -6.8872    0.3810   -0.1944 C.ar    1  UNL11      -0.0611
     20 C          -6.9449    0.4291   -1.5583 C.ar    1  UNL11      -0.0617
     21 C          -5.7920    0.1830   -2.3040 C.ar    1  UNL11      -0.0611
     22 C          -4.6012   -0.1073   -1.6620 C.ar    1  UNL11      -0.0526
     23 N          -2.1040   -0.1239   -0.2453 N.ar    1  UNL11      -0.2142
     24 C           2.6449   -0.4061   -0.8324 C.ar    1  UNL11      -0.0141
     25 H           6.6661    0.8485   -0.1371 H       1  UNL11       0.0405
     26 H           7.2260    2.0955   -1.2655 H       1  UNL11       0.0405
     27 H           7.8708    0.3627   -1.3747 H       1  UNL11       0.0405
     28 H           5.1437    1.4133   -1.8786 H       1  UNL11       0.1477
     29 H           5.2522   -0.8352    1.1915 H       1  UNL11       0.0637
     30 H           3.4661   -0.5176    2.8992 H       1  UNL11       0.0619
     31 H           1.2457   -0.1311    2.2221 H       1  UNL11       0.0636
     32 H           0.2084    0.4797   -1.2837 H       1  UNL11       0.1550
     33 H          -1.9302   -1.9068    3.1353 H       1  UNL11       0.0831
     34 H          -4.1115   -1.4008    2.0860 H       1  UNL11       0.0654
     35 H          -5.6906    0.0626    1.4970 H       1  UNL11       0.0624
     36 H          -7.7566    0.5656    0.4036 H       1  UNL11       0.0618
     37 H          -7.8690    0.6549   -2.0836 H       1  UNL11       0.0618
     38 H          -5.8831    0.2315   -3.3847 H       1  UNL11       0.0618
     39 H          -3.7394   -0.2897   -2.2805 H       1  UNL11       0.0624
     40 H           2.3895   -0.3710   -1.8943 H       1  UNL11       0.0656
@<TRIPOS>BOND
     1     1     2    1
     2     1    25    1
     3     1    26    1
     4     1    27    1
     5     2     3    1
     6     2    28    1
     7     3     4    2
     8     3     5    2
     9     3     6    1
    10     6     7   ar
    11     7     8   ar
    12     7    29    1
    13     8     9   ar
    14     8    30    1
    15     9    10   ar
    16     9    31    1
    17    10    11    1
    18    10    24   ar
    19    11    12    1
    20    11    32    1
    21    12    13   ar
    22    13    14   ar
    23    14    15   ar
    24    14    33    1
    25    15    16   ar
    26    15    34    1
    27    16    17    1
    28    16    23   ar
    29    17    18   ar
    30    18    19   ar
    31    18    35    1
    32    19    20   ar
    33    19    36    1
    34    20    21   ar
    35    20    37    1
    36    21    22   ar
    37    21    38    1
    38    22    17   ar
    39    22    39    1
    40    23    12   ar
    41    24     6   ar
    42    24    40    1
@<TRIPOS>MOLECULE
*****
 40 42 0 0 0
SMALL
GASTEIGER

@<TRIPOS>ATOM
      1 C           3.2815    3.4231   -0.7340 C.3     1  UNL11       0.0059
      2 N           4.4502    2.8699   -1.3817 N.3     1  UNL11      -0.1930
      3 S           5.1750    1.6333   -0.4160 S.O2    1  UNL11       0.0582
      4 O           5.7053    2.3184    0.8281 O.2     1  UNL11      -0.1531
      5 O           6.2517    0.9321   -1.1631 O.2     1  UNL11      -0.1531
      6 C           3.9370    0.5090    0.0884 C.ar    1  UNL11       0.1070
      7 C           4.2448   -0.5720    0.8862 C.ar    1  UNL11      -0.0352
      8 C           3.3130   -1.4671    1.2992 C.ar    1  UNL11      -0.0582
      9 C           1.9885   -1.2674    0.8874 C.ar    1  UNL11      -0.0404
     10 C           1.6111   -0.2230    0.0993 C.ar    1  UNL11       0.0354
     11 N           0.2984   -0.0228   -0.3350 N.pl3   1  UNL11      -0.2836
     12 C          -0.9032   -0.3983    0.3246 C.ar    1  UNL11       0.2200
     13 N          -2.0199    0.3096    0.1716 N.ar    1  UNL11      -0.2226
     14 C          -3.1781    0.0088    0.7630 C.ar    1  UNL11       0.0332
     15 C          -3.1827   -1.1178    1.5809 C.ar    1  UNL11      -0.0174
     16 C          -2.0472   -1.8731    1.7622 C.ar    1  UNL11       0.0760
     17 C          -2.0358   -3.0619    2.6199 C.ar    1  UNL11       0.0005
     18 C          -2.8542   -3.1860    3.6976 C.ar    1  UNL11      -0.0526
     19 C          -2.8349   -4.3270    4.5107 C.ar    1  UNL11      -0.0611
     20 C          -1.9716   -5.3435    4.2150 C.ar    1  UNL11      -0.0617
     21 C          -1.1263   -5.2281    3.1114 C.ar    1  UNL11      -0.0611
     22 C          -1.1659   -4.0903    2.3251 C.ar    1  UNL11      -0.0526
     23 N          -0.9235   -1.4940    1.1252 N.ar    1  UNL11      -0.2142
     24 C           2.6283    0.6628   -0.2893 C.ar    1  UNL11      -0.0141
     25 H           2.6332    2.5615   -0.4108 H       1  UNL11       0.0405
     26 H           2.6725    3.9865   -1.4642 H       1  UNL11       0.0405
     27 H           3.5328    3.9987    0.1759 H       1  UNL11       0.0405
     28 H           4.1174    2.4231   -2.2676 H       1  UNL11       0.1477
     29 H           5.2689   -0.7146    1.1965 H       1  UNL11       0.0637
     30 H           3.5131   -2.3258    1.9235 H       1  UNL11       0.0619
     31 H           1.2779   -2.0099    1.2587 H       1  UNL11       0.0636
     32 H           0.2084    0.4797   -1.2837 H       1  UNL11       0.1550
     33 H          -4.0883    0.5978    0.6296 H       1  UNL11       0.0831
     34 H          -4.1117   -1.4009    2.0856 H       1  UNL11       0.0654
     35 H          -3.5509   -2.4289    3.9825 H       1  UNL11       0.0624
     36 H          -3.4953   -4.3882    5.3518 H       1  UNL11       0.0618
     37 H          -1.9233   -6.2459    4.8185 H       1  UNL11       0.0618
     38 H          -0.4566   -6.0592    2.9133 H       1  UNL11       0.0618
     39 H          -0.4945   -4.0481    1.4848 H       1  UNL11       0.0624
     40 H           2.3549    1.5107   -0.9221 H       1  UNL11       0.0656
@<TRIPOS>BOND
     1     1     2    1
     2     1    25    1
     3     1    26    1
     4     1    27    1
     5     2     3    1
     6     2    28    1
     7     3     4    2
     8     3     5    2
     9     3     6    1
    10     6     7   ar
    11     7     8   ar
    12     7    29    1
    13     8     9   ar
    14     8    30    1
    15     9    10   ar
    16     9    31    1
    17    10    11    1
    18    10    24   ar
    19    11    12    1
    20    11    32    1
    21    12    13   ar
    22    13    14   ar
    23    14    15   ar
    24    14    33    1
    25    15    16   ar
    26    15    34    1
    27    16    17    1
    28    16    23   ar
    29    17    18   ar
    30    18    19   ar
    31    18    35    1
    32    19    20   ar
    33    19    36    1
    34    20    21   ar
    35    20    37    1
    36    21    22   ar
    37    21    38    1
    38    22    17   ar
    39    22    39    1
    40    23    12   ar
    41    24     6   ar
    42    24    40    1
@<TRIPOS>MOLECULE
*****
 40 42 0 0 0
SMALL
GASTEIGER

@<TRIPOS>ATOM
      1 C           3.2176   -2.8799    4.4822 C.3     1  UNL11       0.0059
      2 N           4.2258   -1.9139    4.1056 N.3     1  UNL11      -0.1930
      3 S           3.5122   -0.4005    3.6724 S.O2    1  UNL11       0.0582
      4 O           4.5647    0.6588    3.9345 O.2     1  UNL11      -0.1531
      5 O           2.2706   -0.1514    4.4504 O.2     1  UNL11      -0.1531
      6 C           3.1799   -0.4004    1.9575 C.ar    1  UNL11       0.1070
      7 C           4.1935   -0.5750    1.0400 C.ar    1  UNL11      -0.0352
      8 C           3.9769   -0.5813   -0.2991 C.ar    1  UNL11      -0.0582
      9 C           2.6618   -0.4015   -0.7484 C.ar    1  UNL11      -0.0404
     10 C           1.6111   -0.2230    0.0993 C.ar    1  UNL11       0.0354
     11 N           0.2984   -0.0228   -0.3350 N.pl3   1  UNL11      -0.2836
     12 C          -0.9032   -0.3983    0.3246 C.ar    1  UNL11       0.2200
     13 N          -2.0916   -0.1520   -0.2218 N.ar    1  UNL11      -0.2226
     14 C          -3.2539   -0.4795    0.3469 C.ar    1  UNL11       0.0332
     15 C          -3.1822   -1.1147    1.5835 C.ar    1  UNL11      -0.0174
     16 C          -1.9713   -1.3852    2.1781 C.ar    1  UNL11       0.0760
     17 C          -1.8790   -2.0533    3.4797 C.ar    1  UNL11       0.0005
     18 C          -2.9801   -2.4451    4.1730 C.ar    1  UNL11      -0.0526
     19 C          -2.8801   -3.0831    5.4166 C.ar    1  UNL11      -0.0611
     20 C          -1.6445   -3.3189    5.9490 C.ar    1  UNL11      -0.0617
     21 C          -0.5064   -2.9215    5.2470 C.ar    1  UNL11      -0.0611
     22 C          -0.6337   -2.2933    4.0208 C.ar    1  UNL11      -0.0526
     23 N          -0.8496   -1.0183    1.5307 N.ar    1  UNL11      -0.2142
     24 C           1.9101   -0.2280    1.4708 C.ar    1  UNL11      -0.0141
     25 H           2.5380   -2.3861    5.2315 H       1  UNL11       0.0405
     26 H           3.6824   -3.7236    5.0240 H       1  UNL11       0.0405
     27 H           2.5875   -3.1907    3.6286 H       1  UNL11       0.0405
     28 H           4.8163   -1.7521    4.9543 H       1  UNL11       0.1477
     29 H           5.2022   -0.7125    1.3991 H       1  UNL11       0.0637
     30 H           4.7425   -0.7148   -1.0496 H       1  UNL11       0.0619
     31 H           2.5424   -0.4278   -1.8343 H       1  UNL11       0.0636
     32 H           0.2084    0.4797   -1.2837 H       1  UNL11       0.1550
     33 H          -4.2235   -0.2720   -0.1117 H       1  UNL11       0.0831
     34 H          -4.1117   -1.4010    2.0856 H       1  UNL11       0.0654
     35 H          -3.9731   -2.2906    3.8130 H       1  UNL11       0.0624
     36 H          -3.7712   -3.3772    5.9332 H       1  UNL11       0.0618
     37 H          -1.5207   -3.8105    6.9102 H       1  UNL11       0.0618
     38 H           0.4549   -3.1285    5.7070 H       1  UNL11       0.0618
     39 H           0.2734   -2.0056    3.5177 H       1  UNL11       0.0624
     40 H           1.0865   -0.0870    2.1750 H       1  UNL11       0.0656
@<TRIPOS>BOND
     1     1     2    1
     2     1    25    1
     3     1    26    1
     4     1    27    1
     5     2     3    1
     6     2    28    1
     7     3     4    2
     8     3     5    2
     9     3     6    1
    10     6     7   ar
    11     7     8   ar
    12     7    29    1
    13     8     9   ar
    14     8    30    1
    15     9    10   ar
    16     9    31    1
    17    10    11    1
    18    10    24   ar
    19    11    12    1
    20    11    32    1
    21    12    13   ar
    22    13    14   ar
    23    14    15   ar
    24    14    33    1
    25    15    16   ar
    26    15    34    1
    27    16    17    1
    28    16    23   ar
    29    17    18   ar
    30    18    19   ar
    31    18    35    1
    32    19    20   ar
    33    19    36    1
    34    20    21   ar
    35    20    37    1
    36    21    22   ar
    37    21    38    1
    38    22    17   ar
    39    22    39    1
    40    23    12   ar
    41    24     6   ar
    42    24    40    1
@<TRIPOS>MOLECULE
*****
 40 42 0 0 0
SMALL
GASTEIGER

@<TRIPOS>ATOM
      1 C           3.2794   -1.3508    4.4787 C.3     1  UNL11       0.0059
      2 N           4.1397   -2.3734    3.9259 N.3     1  UNL11      -0.1930
      3 S           3.5452   -2.9363    2.4037 S.O2    1  UNL11       0.0582
      4 O           2.2344   -3.6417    2.6912 O.2     1  UNL11      -0.1531
      5 O           4.5263   -3.8381    1.7457 O.2     1  UNL11      -0.1531
      6 C           3.1913   -1.5592    1.3889 C.ar    1  UNL11       0.1070
      7 C           4.1813   -0.6686    1.0335 C.ar    1  UNL11      -0.0352
      8 C           3.9475    0.4122    0.2478 C.ar    1  UNL11      -0.0582
      9 C           2.6391    0.6143   -0.2115 C.ar    1  UNL11      -0.0404
     10 C           1.6111   -0.2230    0.0993 C.ar    1  UNL11       0.0354
     11 N           0.2984   -0.0228   -0.3350 N.pl3   1  UNL11      -0.2836
     12 C          -0.9032   -0.3983    0.3246 C.ar    1  UNL11       0.2200
     13 N          -2.0199    0.3096    0.1716 N.ar    1  UNL11      -0.2226
     14 C          -3.1781    0.0088    0.7630 C.ar    1  UNL11       0.0332
     15 C          -3.1827   -1.1178    1.5809 C.ar    1  UNL11      -0.0174
     16 C          -2.0472   -1.8731    1.7622 C.ar    1  UNL11       0.0760
     17 C          -2.0358   -3.0619    2.6199 C.ar    1  UNL11       0.0005
     18 C          -2.8542   -3.1860    3.6976 C.ar    1  UNL11      -0.0526
     19 C          -2.8349   -4.3270    4.5107 C.ar    1  UNL11      -0.0611
     20 C          -1.9716   -5.3435    4.2150 C.ar    1  UNL11      -0.0617
     21 C          -1.1263   -5.2281    3.1114 C.ar    1  UNL11      -0.0611
     22 C          -1.1659   -4.0903    2.3251 C.ar    1  UNL11      -0.0526
     23 N          -0.9235   -1.4940    1.1252 N.ar    1  UNL11      -0.2142
     24 C           1.9271   -1.3201    0.9160 C.ar    1  UNL11      -0.0141
     25 H           3.0975   -0.5878    3.6713 H       1  UNL11       0.0405
     26 H           3.8060   -0.8035    5.2816 H       1  UNL11       0.0405
     27 H           2.2915   -1.7447    4.7808 H       1  UNL11       0.0405
     28 H           5.0680   -1.9220    3.7540 H       1  UNL11       0.1477
     29 H           5.1852   -0.8356    1.3939 H       1  UNL11       0.0637
     30 H           4.6944    1.1324   -0.0529 H       1  UNL11       0.0619
     31 H           2.5096    1.4916   -0.8501 H       1  UNL11       0.0636
     32 H           0.2084    0.4797   -1.2837 H       1  UNL11       0.1550
     33 H          -4.0883    0.5978    0.6296 H       1  UNL11       0.0831
     34 H          -4.1117   -1.4009    2.0856 H       1  UNL11       0.0654
     35 H          -3.5509   -2.4289    3.9825 H       1  UNL11       0.0624
     36 H          -3.4953   -4.3882    5.3518 H       1  UNL11       0.0618
     37 H          -1.9233   -6.2459    4.8185 H       1  UNL11       0.0618
     38 H          -0.4566   -6.0592    2.9133 H       1  UNL11       0.0618
     39 H          -0.4945   -4.0481    1.4848 H       1  UNL11       0.0624
     40 H           1.1219   -2.0093    1.1819 H       1  UNL11       0.0656
@<TRIPOS>BOND
     1     1     2    1
     2     1    25    1
     3     1    26    1
     4     1    27    1
     5     2     3    1
     6     2    28    1
     7     3     4    2
     8     3     5    2
     9     3     6    1
    10     6     7   ar
    11     7     8   ar
    12     7    29    1
    13     8     9   ar
    14     8    30    1
    15     9    10   ar
    16     9    31    1
    17    10    11    1
    18    10    24   ar
    19    11    12    1
    20    11    32    1
    21    12    13   ar
    22    13    14   ar
    23    14    15   ar
    24    14    33    1
    25    15    16   ar
    26    15    34    1
    27    16    17    1
    28    16    23   ar
    29    17    18   ar
    30    18    19   ar
    31    18    35    1
    32    19    20   ar
    33    19    36    1
    34    20    21   ar
    35    20    37    1
    36    21    22   ar
    37    21    38    1
    38    22    17   ar
    39    22    39    1
    40    23    12   ar
    41    24     6   ar
    42    24    40    1
@<TRIPOS>MOLECULE
*****
 40 42 0 0 0
SMALL
GASTEIGER

@<TRIPOS>ATOM
      1 C           5.8907   -3.2765   -0.9299 C.3     1  UNL11       0.0059
      2 N           5.3304   -2.5311   -2.0353 N.3     1  UNL11      -0.1930
      3 S           5.2074   -0.8490   -1.6580 S.O2    1  UNL11       0.0582
      4 O           4.7619   -0.1569   -2.9312 O.2     1  UNL11      -0.1531
      5 O           6.5026   -0.3150   -1.1619 O.2     1  UNL11      -0.1531
      6 C           3.9481   -0.6253   -0.4682 C.ar    1  UNL11       0.1070
      7 C           4.2329   -0.6637    0.8798 C.ar    1  UNL11      -0.0352
      8 C           3.2842   -0.4946    1.8345 C.ar    1  UNL11      -0.0582
      9 C           1.9663   -0.2731    1.4130 C.ar    1  UNL11      -0.0404
     10 C           1.6111   -0.2230    0.0993 C.ar    1  UNL11       0.0354
     11 N           0.2984   -0.0228   -0.3350 N.pl3   1  UNL11      -0.2836
     12 C          -0.9032   -0.3983    0.3246 C.ar    1  UNL11       0.2200
     13 N          -0.9654   -0.4633    1.6525 N.ar    1  UNL11      -0.2226
     14 C          -2.0626   -0.8088    2.3297 C.ar    1  UNL11       0.0332
     15 C          -3.1897   -1.1124    1.5711 C.ar    1  UNL11      -0.0174
     16 C          -3.1619   -1.0558    0.1967 C.ar    1  UNL11       0.0760
     17 C          -4.3401   -1.3724   -0.6160 C.ar    1  UNL11       0.0005
     18 C          -4.5649   -0.7915   -1.8237 C.ar    1  UNL11      -0.0526
     19 C          -5.6947   -1.1016   -2.5924 C.ar    1  UNL11      -0.0611
     20 C          -6.5962   -2.0116   -2.1179 C.ar    1  UNL11      -0.0617
     21 C          -6.3767   -2.6150   -0.8795 C.ar    1  UNL11      -0.0611
     22 C          -5.2526   -2.2904   -0.1409 C.ar    1  UNL11      -0.0526
     23 N          -2.0104   -0.6973   -0.4012 N.ar    1  UNL11      -0.2142
     24 C           2.6449   -0.4061   -0.8324 C.ar    1  UNL11      -0.0141
     25 H           6.8251   -2.7425   -0.5998 H       1  UNL11       0.0405
     26 H           6.2307   -4.2702   -1.2742 H       1  UNL11       0.0405
     27 H           5.2135   -3.3144   -0.0568 H       1  UNL11       0.0405
     28 H           6.0029   -2.6269   -2.8314 H       1  UNL11       0.1477
     29 H           5.2522   -0.8352    1.1915 H       1  UNL11       0.0637
     30 H           3.4661   -0.5176    2.8992 H       1  UNL11       0.0619
     31 H           1.2457   -0.1311    2.2221 H       1  UNL11       0.0636
     32 H           0.2084    0.4797   -1.2837 H       1  UNL11       0.1550
     33 H          -2.1013   -0.8585    3.4203 H       1  UNL11       0.0831
     34 H          -4.1116   -1.4007    2.0859 H       1  UNL11       0.0654
     35 H          -3.9002   -0.0735   -2.2506 H       1  UNL11       0.0624
     36 H          -5.8375   -0.6227   -3.5398 H       1  UNL11       0.0618
     37 H          -7.4857   -2.2816   -2.6807 H       1  UNL11       0.0618
     38 H          -7.1183   -3.3319   -0.5411 H       1  UNL11       0.0618
     39 H          -5.1274   -2.7824    0.8082 H       1  UNL11       0.0624
     40 H           2.3895   -0.3710   -1.8943 H       1  UNL11       0.0656
@<TRIPOS>BOND
     1     1     2    1
     2     1    25    1
     3     1    26    1
     4     1    27    1
     5     2     3    1
     6     2    28    1
     7     3     4    2
     8     3     5    2
     9     3     6    1
    10     6     7   ar
    11     7     8   ar
    12     7    29    1
    13     8     9   ar
    14     8    30    1
    15     9    10   ar
    16     9    31    1
    17    10    11    1
    18    10    24   ar
    19    11    12    1
    20    11    32    1
    21    12    13   ar
    22    13    14   ar
    23    14    15   ar
    24    14    33    1
    25    15    16   ar
    26    15    34    1
    27    16    17    1
    28    16    23   ar
    29    17    18   ar
    30    18    19   ar
    31    18    35    1
    32    19    20   ar
    33    19    36    1
    34    20    21   ar
    35    20    37    1
    36    21    22   ar
    37    21    38    1
    38    22    17   ar
    39    22    39    1
    40    23    12   ar
    41    24     6   ar
    42    24    40    1
@<TRIPOS>MOLECULE
*****
 40 42 0 0 0
SMALL
GASTEIGER

@<TRIPOS>ATOM
      1 C           7.1728    0.1167   -0.2107 C.3     1  UNL11       0.0059
      2 N           6.7110   -1.0991   -0.8433 N.3     1  UNL11      -0.1930
      3 S           5.2074   -0.8490   -1.6580 S.O2    1  UNL11       0.0582
      4 O           4.9076   -2.1334   -2.4055 O.2     1  UNL11      -0.1531
      5 O           5.2818    0.3196   -2.5733 O.2     1  UNL11      -0.1531
      6 C           3.9481   -0.6253   -0.4682 C.ar    1  UNL11       0.1070
      7 C           4.2329   -0.6637    0.8798 C.ar    1  UNL11      -0.0352
      8 C           3.2842   -0.4946    1.8345 C.ar    1  UNL11      -0.0582
      9 C           1.9663   -0.2731    1.4130 C.ar    1  UNL11      -0.0404
     10 C           1.6111   -0.2230    0.0993 C.ar    1  UNL11       0.0354
     11 N           0.2984   -0.0228   -0.3350 N.pl3   1  UNL11      -0.2836
     12 C          -0.9032   -0.3983    0.3246 C.ar    1  UNL11       0.2200
     13 N          -0.9654   -0.4633    1.6525 N.ar    1  UNL11      -0.2226
     14 C          -2.0626   -0.8088    2.3297 C.ar    1  UNL11       0.0332
     15 C          -3.1897   -1.1124    1.5711 C.ar    1  UNL11      -0.0174
     16 C          -3.1619   -1.0558    0.1967 C.ar    1  UNL11       0.0760
     17 C          -4.3401   -1.3724   -0.6160 C.ar    1  UNL11       0.0005
     18 C          -5.5259   -1.7378   -0.0621 C.ar    1  UNL11      -0.0526
     19 C          -6.6459   -2.0383   -0.8487 C.ar    1  UNL11      -0.0611
     20 C          -6.5464   -1.9630   -2.2090 C.ar    1  UNL11      -0.0617
     21 C          -5.3345   -1.5891   -2.7899 C.ar    1  UNL11      -0.0611
     22 C          -4.2441   -1.2977   -1.9895 C.ar    1  UNL11      -0.0526
     23 N          -2.0104   -0.6973   -0.4012 N.ar    1  UNL11      -0.2142
     24 C           2.6449   -0.4061   -0.8324 C.ar    1  UNL11      -0.0141
     25 H           7.1215    0.9388   -0.9779 H       1  UNL11       0.0405
     26 H           8.2435    0.0280    0.0484 H       1  UNL11       0.0405
     27 H           6.5326    0.4240    0.6367 H       1  UNL11       0.0405
     28 H           7.4240   -1.3482   -1.5677 H       1  UNL11       0.1477
     29 H           5.2522   -0.8352    1.1915 H       1  UNL11       0.0637
     30 H           3.4661   -0.5176    2.8992 H       1  UNL11       0.0619
     31 H           1.2457   -0.1311    2.2221 H       1  UNL11       0.0636
     32 H           0.2084    0.4797   -1.2837 H       1  UNL11       0.1550
     33 H          -2.1013   -0.8585    3.4203 H       1  UNL11       0.0831
     34 H          -4.1116   -1.4007    2.0859 H       1  UNL11       0.0654
     35 H          -5.6696   -1.8157    0.9929 H       1  UNL11       0.0624
     36 H          -7.5637   -2.3227   -0.3754 H       1  UNL11       0.0618
     37 H          -7.3894   -2.1874   -2.8569 H       1  UNL11       0.0618
     38 H          -5.3001   -1.5422   -3.8739 H       1  UNL11       0.0618
     39 H          -3.3312   -1.0141   -2.4843 H       1  UNL11       0.0624
     40 H           2.3895   -0.3710   -1.8943 H       1  UNL11       0.0656
@<TRIPOS>BOND
     1     1     2    1
     2     1    25    1
     3     1    26    1
     4     1    27    1
     5     2     3    1
     6     2    28    1
     7     3     4    2
     8     3     5    2
     9     3     6    1
    10     6     7   ar
    11     7     8   ar
    12     7    29    1
    13     8     9   ar
    14     8    30    1
    15     9    10   ar
    16     9    31    1
    17    10    11    1
    18    10    24   ar
    19    11    12    1
    20    11    32    1
    21    12    13   ar
    22    13    14   ar
    23    14    15   ar
    24    14    33    1
    25    15    16   ar
    26    15    34    1
    27    16    17    1
    28    16    23   ar
    29    17    18   ar
    30    18    19   ar
    31    18    35    1
    32    19    20   ar
    33    19    36    1
    34    20    21   ar
    35    20    37    1
    36    21    22   ar
    37    21    38    1
    38    22    17   ar
    39    22    39    1
    40    23    12   ar
    41    24     6   ar
    42    24    40    1
@<TRIPOS>MOLECULE
*****
 40 42 0 0 0
SMALL
GASTEIGER

@<TRIPOS>ATOM
      1 C           5.1279    1.6560   -3.0404 C.3     1  UNL11       0.0059
      2 N           5.8441    1.0952   -1.9161 N.3     1  UNL11      -0.1930
      3 S           5.1750    1.6333   -0.4160 S.O2    1  UNL11       0.0582
      4 O           4.4995    2.9603   -0.7010 O.2     1  UNL11      -0.1531
      5 O           6.2279    1.7606    0.6252 O.2     1  UNL11      -0.1531
      6 C           3.9370    0.5090    0.0884 C.ar    1  UNL11       0.1070
      7 C           4.2448   -0.5720    0.8862 C.ar    1  UNL11      -0.0352
      8 C           3.3130   -1.4671    1.2992 C.ar    1  UNL11      -0.0582
      9 C           1.9885   -1.2674    0.8874 C.ar    1  UNL11      -0.0404
     10 C           1.6111   -0.2230    0.0993 C.ar    1  UNL11       0.0354
     11 N           0.2984   -0.0228   -0.3350 N.pl3   1  UNL11      -0.2836
     12 C          -0.9032   -0.3983    0.3246 C.ar    1  UNL11       0.2200
     13 N          -0.9431   -1.4607    1.1254 N.ar    1  UNL11      -0.2226
     14 C          -2.0390   -1.8639    1.7721 C.ar    1  UNL11       0.0332
     15 C          -3.1898   -1.1058    1.5747 C.ar    1  UNL11      -0.0174
     16 C          -3.1854   -0.0015    0.7541 C.ar    1  UNL11       0.0760
     17 C          -4.3886    0.8070    0.5362 C.ar    1  UNL11       0.0005
     18 C          -5.3570    0.9347    1.4809 C.ar    1  UNL11      -0.0526
     19 C          -6.5033    1.7103    1.2618 C.ar    1  UNL11      -0.0611
     20 C          -6.6546    2.3563    0.0678 C.ar    1  UNL11      -0.0617
     21 C          -5.6675    2.2331   -0.9102 C.ar    1  UNL11      -0.0611
     22 C          -4.5454    1.4608   -0.6676 C.ar    1  UNL11      -0.0526
     23 N          -2.0334    0.3307    0.1422 N.ar    1  UNL11      -0.2142
     24 C           2.6283    0.6628   -0.2893 C.ar    1  UNL11      -0.0141
     25 H           4.0297    1.4834   -2.8631 H       1  UNL11       0.0405
     26 H           5.3649    1.0933   -3.9617 H       1  UNL11       0.0405
     27 H           5.2732    2.7479   -3.1345 H       1  UNL11       0.0405
     28 H           5.7127    0.0582   -1.9655 H       1  UNL11       0.1477
     29 H           5.2689   -0.7146    1.1965 H       1  UNL11       0.0637
     30 H           3.5131   -2.3258    1.9235 H       1  UNL11       0.0619
     31 H           1.2779   -2.0099    1.2587 H       1  UNL11       0.0636
     32 H           0.2084    0.4797   -1.2837 H       1  UNL11       0.1550
     33 H          -2.0593   -2.7380    2.4269 H       1  UNL11       0.0831
     34 H          -4.1115   -1.4009    2.0860 H       1  UNL11       0.0654
     35 H          -5.2996    0.4564    2.4335 H       1  UNL11       0.0624
     36 H          -7.2450    1.7868    2.0309 H       1  UNL11       0.0618
     37 H          -7.5274    2.9679   -0.1445 H       1  UNL11       0.0618
     38 H          -5.8284    2.7633   -1.8438 H       1  UNL11       0.0618
     39 H          -3.8120    1.3966   -1.4529 H       1  UNL11       0.0624
     40 H           2.3549    1.5107   -0.9221 H       1  UNL11       0.0656
@<TRIPOS>BOND
     1     1     2    1
     2     1    25    1
     3     1    26    1
     4     1    27    1
     5     2     3    1
     6     2    28    1
     7     3     4    2
     8     3     5    2
     9     3     6    1
    10     6     7   ar
    11     7     8   ar
    12     7    29    1
    13     8     9   ar
    14     8    30    1
    15     9    10   ar
    16     9    31    1
    17    10    11    1
    18    10    24   ar
    19    11    12    1
    20    11    32    1
    21    12    13   ar
    22    13    14   ar
    23    14    15   ar
    24    14    33    1
    25    15    16   ar
    26    15    34    1
    27    16    17    1
    28    16    23   ar
    29    17    18   ar
    30    18    19   ar
    31    18    35    1
    32    19    20   ar
    33    19    36    1
    34    20    21   ar
    35    20    37    1
    36    21    22   ar
    37    21    38    1
    38    22    17   ar
    39    22    39    1
    40    23    12   ar
    41    24     6   ar
    42    24    40    1
@<TRIPOS>MOLECULE
*****
 40 42 0 0 0
SMALL
GASTEIGER

@<TRIPOS>ATOM
      1 C           6.9443   -2.5043   -0.5935 C.3     1  UNL11       0.0059
      2 N           6.7110   -1.0991   -0.8433 N.3     1  UNL11      -0.1930
      3 S           5.2074   -0.8490   -1.6580 S.O2    1  UNL11       0.0582
      4 O           4.9076   -2.1334   -2.4055 O.2     1  UNL11      -0.1531
      5 O           5.2818    0.3196   -2.5733 O.2     1  UNL11      -0.1531
      6 C           3.9481   -0.6253   -0.4682 C.ar    1  UNL11       0.1070
      7 C           4.2329   -0.6637    0.8798 C.ar    1  UNL11      -0.0352
      8 C           3.2842   -0.4946    1.8345 C.ar    1  UNL11      -0.0582
      9 C           1.9663   -0.2731    1.4130 C.ar    1  UNL11      -0.0404
     10 C           1.6111   -0.2230    0.0993 C.ar    1  UNL11       0.0354
     11 N           0.2984   -0.0228   -0.3350 N.pl3   1  UNL11      -0.2836
     12 C          -0.9032   -0.3983    0.3246 C.ar    1  UNL11       0.2200
     13 N          -2.0199    0.3096    0.1716 N.ar    1  UNL11      -0.2226
     14 C          -3.1781    0.0088    0.7630 C.ar    1  UNL11       0.0332
     15 C          -3.1827   -1.1178    1.5809 C.ar    1  UNL11      -0.0174
     16 C          -2.0472   -1.8731    1.7622 C.ar    1  UNL11       0.0760
     17 C          -2.0358   -3.0619    2.6199 C.ar    1  UNL11       0.0005
     18 C          -2.8542   -3.1860    3.6976 C.ar    1  UNL11      -0.0526
     19 C          -2.8349   -4.3270    4.5107 C.ar    1  UNL11      -0.0611
     20 C          -1.9716   -5.3435    4.2150 C.ar    1  UNL11      -0.0617
     21 C          -1.1263   -5.2281    3.1114 C.ar    1  UNL11      -0.0611
     22 C          -1.1659   -4.0903    2.3251 C.ar    1  UNL11      -0.0526
     23 N          -0.9235   -1.4940    1.1252 N.ar    1  UNL11      -0.2142
     24 C           2.6449   -0.4061   -0.8324 C.ar    1  UNL11      -0.0141
     25 H           6.0136   -2.9234   -0.1188 H       1  UNL11       0.0405
     26 H           7.7384   -2.6294    0.1649 H       1  UNL11       0.0405
     27 H           7.1202   -3.0772   -1.5226 H       1  UNL11       0.0405
     28 H           6.6425   -0.6366    0.0930 H       1  UNL11       0.1477
     29 H           5.2522   -0.8352    1.1915 H       1  UNL11       0.0637
     30 H           3.4661   -0.5176    2.8992 H       1  UNL11       0.0619
     31 H           1.2457   -0.1311    2.2221 H       1  UNL11       0.0636
     32 H           0.2084    0.4797   -1.2837 H       1  UNL11       0.1550
     33 H          -4.0883    0.5978    0.6296 H       1  UNL11       0.0831
     34 H          -4.1117   -1.4009    2.0856 H       1  UNL11       0.0654
     35 H          -3.5509   -2.4289    3.9825 H       1  UNL11       0.0624
     36 H          -3.4953   -4.3882    5.3518 H       1  UNL11       0.0618
     37 H          -1.9233   -6.2459    4.8185 H       1  UNL11       0.0618
     38 H          -0.4566   -6.0592    2.9133 H       1  UNL11       0.0618
     39 H          -0.4945   -4.0481    1.4848 H       1  UNL11       0.0624
     40 H           2.3895   -0.3710   -1.8943 H       1  UNL11       0.0656
@<TRIPOS>BOND
     1     1     2    1
     2     1    25    1
     3     1    26    1
     4     1    27    1
     5     2     3    1
     6     2    28    1
     7     3     4    2
     8     3     5    2
     9     3     6    1
    10     6     7   ar
    11     7     8   ar
    12     7    29    1
    13     8     9   ar
    14     8    30    1
    15     9    10   ar
    16     9    31    1
    17    10    11    1
    18    10    24   ar
    19    11    12    1
    20    11    32    1
    21    12    13   ar
    22    13    14   ar
    23    14    15   ar
    24    14    33    1
    25    15    16   ar
    26    15    34    1
    27    16    17    1
    28    16    23   ar
    29    17    18   ar
    30    18    19   ar
    31    18    35    1
    32    19    20   ar
    33    19    36    1
    34    20    21   ar
    35    20    37    1
    36    21    22   ar
    37    21    38    1
    38    22    17   ar
    39    22    39    1
    40    23    12   ar
    41    24     6   ar
    42    24    40    1
@<TRIPOS>MOLECULE
*****
 40 42 0 0 0
SMALL
GASTEIGER

@<TRIPOS>ATOM
      1 C           6.2787   -3.1947   -1.1682 C.3     1  UNL11       0.0059
      2 N           5.3304   -2.5311   -2.0353 N.3     1  UNL11      -0.1930
      3 S           5.2074   -0.8490   -1.6580 S.O2    1  UNL11       0.0582
      4 O           4.7619   -0.1569   -2.9312 O.2     1  UNL11      -0.1531
      5 O           6.5026   -0.3150   -1.1619 O.2     1  UNL11      -0.1531
      6 C           3.9481   -0.6253   -0.4682 C.ar    1  UNL11       0.1070
      7 C           4.2329   -0.6637    0.8798 C.ar    1  UNL11      -0.0352
      8 C           3.2842   -0.4946    1.8345 C.ar    1  UNL11      -0.0582
      9 C           1.9663   -0.2731    1.4130 C.ar    1  UNL11      -0.0404
     10 C           1.6111   -0.2230    0.0993 C.ar    1  UNL11       0.0354
     11 N           0.2984   -0.0228   -0.3350 N.pl3   1  UNL11      -0.2836
     12 C          -0.9032   -0.3983    0.3246 C.ar    1  UNL11       0.2200
     13 N          -2.0199    0.3096    0.1716 N.ar    1  UNL11      -0.2226
     14 C          -3.1781    0.0088    0.7630 C.ar    1  UNL11       0.0332
     15 C          -3.1827   -1.1178    1.5809 C.ar    1  UNL11      -0.0174
     16 C          -2.0472   -1.8731    1.7622 C.ar    1  UNL11       0.0760
     17 C          -2.0358   -3.0619    2.6199 C.ar    1  UNL11       0.0005
     18 C          -3.1427   -3.4877    3.2833 C.ar    1  UNL11      -0.0526
     19 C          -3.1205   -4.6256    4.1006 C.ar    1  UNL11      -0.0611
     20 C          -1.9567   -5.3279    4.2365 C.ar    1  UNL11      -0.0617
     21 C          -0.8135   -4.9010    3.5607 C.ar    1  UNL11      -0.0611
     22 C          -0.8633   -3.7737    2.7599 C.ar    1  UNL11      -0.0526
     23 N          -0.9235   -1.4940    1.1252 N.ar    1  UNL11      -0.2142
     24 C           2.6449   -0.4061   -0.8324 C.ar    1  UNL11      -0.0141
     25 H           7.2251   -2.5851   -1.1711 H       1  UNL11       0.0405
     26 H           6.5632   -4.1741   -1.5939 H       1  UNL11       0.0405
     27 H           5.9308   -3.2477   -0.1201 H       1  UNL11       0.0405
     28 H           5.7096   -2.6088   -3.0076 H       1  UNL11       0.1477
     29 H           5.2522   -0.8352    1.1915 H       1  UNL11       0.0637
     30 H           3.4661   -0.5176    2.8992 H       1  UNL11       0.0619
     31 H           1.2457   -0.1311    2.2221 H       1  UNL11       0.0636
     32 H           0.2084    0.4797   -1.2837 H       1  UNL11       0.1550
     33 H          -4.0883    0.5978    0.6296 H       1  UNL11       0.0831
     34 H          -4.1117   -1.4009    2.0856 H       1  UNL11       0.0654
     35 H          -4.0820   -2.9844    3.2196 H       1  UNL11       0.0624
     36 H          -4.0136   -4.9301    4.6076 H       1  UNL11       0.0618
     37 H          -1.8946   -6.2157    4.8600 H       1  UNL11       0.0618
     38 H           0.0891   -5.4885    3.6971 H       1  UNL11       0.0618
     39 H           0.0446   -3.4843    2.2592 H       1  UNL11       0.0624
     40 H           2.3895   -0.3710   -1.8943 H       1  UNL11       0.0656
@<TRIPOS>BOND
     1     1     2    1
     2     1    25    1
     3     1    26    1
     4     1    27    1
     5     2     3    1
     6     2    28    1
     7     3     4    2
     8     3     5    2
     9     3     6    1
    10     6     7   ar
    11     7     8   ar
    12     7    29    1
    13     8     9   ar
    14     8    30    1
    15     9    10   ar
    16     9    31    1
    17    10    11    1
    18    10    24   ar
    19    11    12    1
    20    11    32    1
    21    12    13   ar
    22    13    14   ar
    23    14    15   ar
    24    14    33    1
    25    15    16   ar
    26    15    34    1
    27    16    17    1
    28    16    23   ar
    29    17    18   ar
    30    18    19   ar
    31    18    35    1
    32    19    20   ar
    33    19    36    1
    34    20    21   ar
    35    20    37    1
    36    21    22   ar
    37    21    38    1
    38    22    17   ar
    39    22    39    1
    40    23    12   ar
    41    24     6   ar
    42    24    40    1
@<TRIPOS>MOLECULE
*****
 40 42 0 0 0
SMALL
GASTEIGER

@<TRIPOS>ATOM
      1 C           4.2989   -4.8670    0.7930 C.3     1  UNL11       0.0059
      2 N           3.1595   -4.3832    1.5407 N.3     1  UNL11      -0.1930
      3 S           3.5452   -2.9363    2.4037 S.O2    1  UNL11       0.0582
      4 O           5.0436   -2.9623    2.6333 O.2     1  UNL11      -0.1531
      5 O           2.7909   -2.8575    3.6818 O.2     1  UNL11      -0.1531
      6 C           3.1913   -1.5592    1.3889 C.ar    1  UNL11       0.1070
      7 C           4.1813   -0.6686    1.0335 C.ar    1  UNL11      -0.0352
      8 C           3.9475    0.4122    0.2478 C.ar    1  UNL11      -0.0582
      9 C           2.6391    0.6143   -0.2115 C.ar    1  UNL11      -0.0404
     10 C           1.6111   -0.2230    0.0993 C.ar    1  UNL11       0.0354
     11 N           0.2984   -0.0228   -0.3350 N.pl3   1  UNL11      -0.2836
     12 C          -0.9032   -0.3983    0.3246 C.ar    1  UNL11       0.2200
     13 N          -0.8746   -1.0196    1.5013 N.ar    1  UNL11      -0.2226
     14 C          -1.9665   -1.3972    2.1697 C.ar    1  UNL11       0.0332
     15 C          -3.1903   -1.1087    1.5722 C.ar    1  UNL11      -0.0174
     16 C          -3.2579   -0.4677    0.3567 C.ar    1  UNL11       0.0760
     17 C          -4.5385   -0.1568   -0.2854 C.ar    1  UNL11       0.0005
     18 C          -5.6683    0.0847    0.4299 C.ar    1  UNL11      -0.0526
     19 C          -6.8872    0.3810   -0.1944 C.ar    1  UNL11      -0.0611
     20 C          -6.9449    0.4291   -1.5583 C.ar    1  UNL11      -0.0617
     21 C          -5.7920    0.1830   -2.3040 C.ar    1  UNL11      -0.0611
     22 C          -4.6012   -0.1073   -1.6620 C.ar    1  UNL11      -0.0526
     23 N          -2.1040   -0.1239   -0.2453 N.ar    1  UNL11      -0.2142
     24 C           1.9271   -1.3201    0.9160 C.ar    1  UNL11      -0.0141
     25 H           4.7125   -3.9999    0.2062 H       1  UNL11       0.0405
     26 H           3.9725   -5.6013    0.0343 H       1  UNL11       0.0405
     27 H           5.1118   -5.2326    1.4471 H       1  UNL11       0.0405
     28 H           2.4214   -4.1437    0.8385 H       1  UNL11       0.1477
     29 H           5.1852   -0.8356    1.3939 H       1  UNL11       0.0637
     30 H           4.6944    1.1324   -0.0529 H       1  UNL11       0.0619
     31 H           2.5096    1.4916   -0.8501 H       1  UNL11       0.0636
     32 H           0.2084    0.4797   -1.2837 H       1  UNL11       0.1550
     33 H          -1.9302   -1.9068    3.1353 H       1  UNL11       0.0831
     34 H          -4.1115   -1.4008    2.0860 H       1  UNL11       0.0654
     35 H          -5.6906    0.0626    1.4970 H       1  UNL11       0.0624
     36 H          -7.7566    0.5656    0.4036 H       1  UNL11       0.0618
     37 H          -7.8690    0.6549   -2.0836 H       1  UNL11       0.0618
     38 H          -5.8831    0.2315   -3.3847 H       1  UNL11       0.0618
     39 H          -3.7394   -0.2897   -2.2805 H       1  UNL11       0.0624
     40 H           1.1219   -2.0093    1.1819 H       1  UNL11       0.0656
@<TRIPOS>BOND
     1     1     2    1
     2     1    25    1
     3     1    26    1
     4     1    27    1
     5     2     3    1
     6     2    28    1
     7     3     4    2
     8     3     5    2
     9     3     6    1
    10     6     7   ar
    11     7     8   ar
    12     7    29    1
    13     8     9   ar
    14     8    30    1
    15     9    10   ar
    16     9    31    1
    17    10    11    1
    18    10    24   ar
    19    11    12    1
    20    11    32    1
    21    12    13   ar
    22    13    14   ar
    23    14    15   ar
    24    14    33    1
    25    15    16   ar
    26    15    34    1
    27    16    17    1
    28    16    23   ar
    29    17    18   ar
    30    18    19   ar
    31    18    35    1
    32    19    20   ar
    33    19    36    1
    34    20    21   ar
    35    20    37    1
    36    21    22   ar
    37    21    38    1
    38    22    17   ar
    39    22    39    1
    40    23    12   ar
    41    24     6   ar
    42    24    40    1
@<TRIPOS>MOLECULE
*****
 40 42 0 0 0
SMALL
GASTEIGER

@<TRIPOS>ATOM
      1 C           2.8305   -4.7812    0.6787 C.3     1  UNL11       0.0059
      2 N           3.9772   -4.2760    1.4008 N.3     1  UNL11      -0.1930
      3 S           3.5452   -2.9363    2.4037 S.O2    1  UNL11       0.0582
      4 O           4.7776   -2.5985    3.2197 O.2     1  UNL11      -0.1531
      5 O           2.3826   -3.2671    3.2683 O.2     1  UNL11      -0.1531
      6 C           3.1913   -1.5592    1.3889 C.ar    1  UNL11       0.1070
      7 C           4.1813   -0.6686    1.0335 C.ar    1  UNL11      -0.0352
      8 C           3.9475    0.4122    0.2478 C.ar    1  UNL11      -0.0582
      9 C           2.6391    0.6143   -0.2115 C.ar    1  UNL11      -0.0404
     10 C           1.6111   -0.2230    0.0993 C.ar    1  UNL11       0.0354
     11 N           0.2984   -0.0228   -0.3350 N.pl3   1  UNL11      -0.2836
     12 C          -0.9032   -0.3983    0.3246 C.ar    1  UNL11       0.2200
     13 N          -0.9431   -1.4607    1.1254 N.ar    1  UNL11      -0.2226
     14 C          -2.0390   -1.8639    1.7721 C.ar    1  UNL11       0.0332
     15 C          -3.1898   -1.1058    1.5747 C.ar    1  UNL11      -0.0174
     16 C          -3.1854   -0.0015    0.7541 C.ar    1  UNL11       0.0760
     17 C          -4.3886    0.8070    0.5362 C.ar    1  UNL11       0.0005
     18 C          -4.3955    1.8897   -0.2850 C.ar    1  UNL11      -0.0526
     19 C          -5.5516    2.6555   -0.4860 C.ar    1  UNL11      -0.0611
     20 C          -6.7041    2.3072    0.1592 C.ar    1  UNL11      -0.0617
     21 C          -6.7101    1.1978    1.0048 C.ar    1  UNL11      -0.0611
     22 C          -5.5542    0.4590    1.1855 C.ar    1  UNL11      -0.0526
     23 N          -2.0334    0.3307    0.1422 N.ar    1  UNL11      -0.2142
     24 C           1.9271   -1.3201    0.9160 C.ar    1  UNL11      -0.0141
     25 H           1.9991   -4.9289    1.4232 H       1  UNL11       0.0405
     26 H           3.0456   -5.7894    0.2802 H       1  UNL11       0.0405
     27 H           2.4611   -4.0698   -0.0827 H       1  UNL11       0.0405
     28 H           4.2987   -5.0487    2.0290 H       1  UNL11       0.1477
     29 H           5.1852   -0.8356    1.3939 H       1  UNL11       0.0637
     30 H           4.6944    1.1324   -0.0529 H       1  UNL11       0.0619
     31 H           2.5096    1.4916   -0.8501 H       1  UNL11       0.0636
     32 H           0.2084    0.4797   -1.2837 H       1  UNL11       0.1550
     33 H          -2.0593   -2.7380    2.4269 H       1  UNL11       0.0831
     34 H          -4.1115   -1.4009    2.0860 H       1  UNL11       0.0654
     35 H          -3.5293    2.2145   -0.8178 H       1  UNL11       0.0624
     36 H          -5.5177    3.5023   -1.1411 H       1  UNL11       0.0618
     37 H          -7.6233    2.8728    0.0324 H       1  UNL11       0.0618
     38 H          -7.6472    0.9571    1.4971 H       1  UNL11       0.0618
     39 H          -5.6089   -0.3879    1.8476 H       1  UNL11       0.0624
     40 H           1.1219   -2.0093    1.1819 H       1  UNL11       0.0656
@<TRIPOS>BOND
     1     1     2    1
     2     1    25    1
     3     1    26    1
     4     1    27    1
     5     2     3    1
     6     2    28    1
     7     3     4    2
     8     3     5    2
     9     3     6    1
    10     6     7   ar
    11     7     8   ar
    12     7    29    1
    13     8     9   ar
    14     8    30    1
    15     9    10   ar
    16     9    31    1
    17    10    11    1
    18    10    24   ar
    19    11    12    1
    20    11    32    1
    21    12    13   ar
    22    13    14   ar
    23    14    15   ar
    24    14    33    1
    25    15    16   ar
    26    15    34    1
    27    16    17    1
    28    16    23   ar
    29    17    18   ar
    30    18    19   ar
    31    18    35    1
    32    19    20   ar
    33    19    36    1
    34    20    21   ar
    35    20    37    1
    36    21    22   ar
    37    21    38    1
    38    22    17   ar
    39    22    39    1
    40    23    12   ar
    41    24     6   ar
    42    24    40    1
@<TRIPOS>MOLECULE
*****
 40 42 0 0 0
SMALL
GASTEIGER

@<TRIPOS>ATOM
      1 C           4.1221   -2.9442    3.4540 C.3     1  UNL11       0.0059
      2 N           3.3723   -2.0159    4.2710 N.3     1  UNL11      -0.1930
      3 S           3.5122   -0.4005    3.6724 S.O2    1  UNL11       0.0582
      4 O           4.9629   -0.0005    3.8573 O.2     1  UNL11      -0.1531
      5 O           2.5892    0.5181    4.3887 O.2     1  UNL11      -0.1531
      6 C           3.1799   -0.4004    1.9575 C.ar    1  UNL11       0.1070
      7 C           4.1935   -0.5750    1.0400 C.ar    1  UNL11      -0.0352
      8 C           3.9769   -0.5813   -0.2991 C.ar    1  UNL11      -0.0582
      9 C           2.6618   -0.4015   -0.7484 C.ar    1  UNL11      -0.0404
     10 C           1.6111   -0.2230    0.0993 C.ar    1  UNL11       0.0354
     11 N           0.2984   -0.0228   -0.3350 N.pl3   1  UNL11      -0.2836
     12 C          -0.9032   -0.3983    0.3246 C.ar    1  UNL11       0.2200
     13 N          -0.9654   -0.4633    1.6525 N.ar    1  UNL11      -0.2226
     14 C          -2.0626   -0.8088    2.3297 C.ar    1  UNL11       0.0332
     15 C          -3.1897   -1.1124    1.5711 C.ar    1  UNL11      -0.0174
     16 C          -3.1619   -1.0558    0.1967 C.ar    1  UNL11       0.0760
     17 C          -4.3401   -1.3724   -0.6160 C.ar    1  UNL11       0.0005
     18 C          -4.3155   -1.3337   -1.9741 C.ar    1  UNL11      -0.0526
     19 C          -5.4478   -1.6383   -2.7412 C.ar    1  UNL11      -0.0611
     20 C          -6.6090   -1.9836   -2.1102 C.ar    1  UNL11      -0.0617
     21 C          -6.6472   -2.0270   -0.7165 C.ar    1  UNL11      -0.0611
     22 C          -5.5143   -1.7214    0.0168 C.ar    1  UNL11      -0.0526
     23 N          -2.0104   -0.6973   -0.4012 N.ar    1  UNL11      -0.2142
     24 C           1.9101   -0.2280    1.4708 C.ar    1  UNL11      -0.0141
     25 H           3.8401   -2.7555    2.3806 H       1  UNL11       0.0405
     26 H           3.7987   -3.9806    3.6610 H       1  UNL11       0.0405
     27 H           5.2144   -2.7933    3.5334 H       1  UNL11       0.0405
     28 H           2.3666   -2.2944    4.1933 H       1  UNL11       0.1477
     29 H           5.2022   -0.7125    1.3991 H       1  UNL11       0.0637
     30 H           4.7425   -0.7148   -1.0496 H       1  UNL11       0.0619
     31 H           2.5424   -0.4278   -1.8343 H       1  UNL11       0.0636
     32 H           0.2084    0.4797   -1.2837 H       1  UNL11       0.1550
     33 H          -2.1013   -0.8585    3.4203 H       1  UNL11       0.0831
     34 H          -4.1116   -1.4007    2.0859 H       1  UNL11       0.0654
     35 H          -3.4409   -1.0717   -2.5275 H       1  UNL11       0.0624
     36 H          -5.3894   -1.5966   -3.8100 H       1  UNL11       0.0618
     37 H          -7.5106   -2.2273   -2.6657 H       1  UNL11       0.0618
     38 H          -7.5902   -2.3062   -0.2567 H       1  UNL11       0.0618
     39 H          -5.5936   -1.7690    1.0893 H       1  UNL11       0.0624
     40 H           1.0865   -0.0870    2.1750 H       1  UNL11       0.0656
@<TRIPOS>BOND
     1     1     2    1
     2     1    25    1
     3     1    26    1
     4     1    27    1
     5     2     3    1
     6     2    28    1
     7     3     4    2
     8     3     5    2
     9     3     6    1
    10     6     7   ar
    11     7     8   ar
    12     7    29    1
    13     8     9   ar
    14     8    30    1
    15     9    10   ar
    16     9    31    1
    17    10    11    1
    18    10    24   ar
    19    11    12    1
    20    11    32    1
    21    12    13   ar
    22    13    14   ar
    23    14    15   ar
    24    14    33    1
    25    15    16   ar
    26    15    34    1
    27    16    17    1
    28    16    23   ar
    29    17    18   ar
    30    18    19   ar
    31    18    35    1
    32    19    20   ar
    33    19    36    1
    34    20    21   ar
    35    20    37    1
    36    21    22   ar
    37    21    38    1
    38    22    17   ar
    39    22    39    1
    40    23    12   ar
    41    24     6   ar
    42    24    40    1
@<TRIPOS>MOLECULE
*****
 40 42 0 0 0
SMALL
GASTEIGER

@<TRIPOS>ATOM
      1 C           6.0439   -3.2344    1.6567 C.3     1  UNL11       0.0059
      2 N           5.2258   -2.9189    2.8068 N.3     1  UNL11      -0.1930
      3 S           3.5452   -2.9363    2.4037 S.O2    1  UNL11       0.0582
      4 O           2.7915   -2.7507    3.7060 O.2     1  UNL11      -0.1531
      5 O           3.1706   -4.2033    1.7231 O.2     1  UNL11      -0.1531
      6 C           3.1913   -1.5592    1.3889 C.ar    1  UNL11       0.1070
      7 C           4.1813   -0.6686    1.0335 C.ar    1  UNL11      -0.0352
      8 C           3.9475    0.4122    0.2478 C.ar    1  UNL11      -0.0582
      9 C           2.6391    0.6143   -0.2115 C.ar    1  UNL11      -0.0404
     10 C           1.6111   -0.2230    0.0993 C.ar    1  UNL11       0.0354
     11 N           0.2984   -0.0228   -0.3350 N.pl3   1  UNL11      -0.2836
     12 C          -0.9032   -0.3983    0.3246 C.ar    1  UNL11       0.2200
     13 N          -2.0199    0.3096    0.1716 N.ar    1  UNL11      -0.2226
     14 C          -3.1781    0.0088    0.7630 C.ar    1  UNL11       0.0332
     15 C          -3.1827   -1.1178    1.5809 C.ar    1  UNL11      -0.0174
     16 C          -2.0472   -1.8731    1.7622 C.ar    1  UNL11       0.0760
     17 C          -2.0358   -3.0619    2.6199 C.ar    1  UNL11       0.0005
     18 C          -1.2162   -4.1194    2.3822 C.ar    1  UNL11      -0.0526
     19 C          -1.2136   -5.2508    3.2088 C.ar    1  UNL11      -0.0611
     20 C          -2.0564   -5.2954    4.2828 C.ar    1  UNL11      -0.0617
     21 C          -2.9028   -4.2162    4.5375 C.ar    1  UNL11      -0.0611
     22 C          -2.8849   -3.1111    3.7051 C.ar    1  UNL11      -0.0526
     23 N          -0.9235   -1.4940    1.1252 N.ar    1  UNL11      -0.2142
     24 C           1.9271   -1.3201    0.9160 C.ar    1  UNL11      -0.0141
     25 H           5.6256   -4.1691    1.1892 H       1  UNL11       0.0405
     26 H           7.0661   -3.5038    1.9791 H       1  UNL11       0.0405
     27 H           6.0133   -2.4441    0.8843 H       1  UNL11       0.0405
     28 H           5.3895   -3.6789    3.5073 H       1  UNL11       0.1477
     29 H           5.1852   -0.8356    1.3939 H       1  UNL11       0.0637
     30 H           4.6944    1.1324   -0.0529 H       1  UNL11       0.0619
     31 H           2.5096    1.4916   -0.8501 H       1  UNL11       0.0636
     32 H           0.2084    0.4797   -1.2837 H       1  UNL11       0.1550
     33 H          -4.0883    0.5978    0.6296 H       1  UNL11       0.0831
     34 H          -4.1117   -1.4009    2.0856 H       1  UNL11       0.0654
     35 H          -0.5349   -4.1473    1.5608 H       1  UNL11       0.0624
     36 H          -0.5529   -6.0648    2.9890 H       1  UNL11       0.0618
     37 H          -2.0874   -6.1528    4.9497 H       1  UNL11       0.0618
     38 H          -3.5557   -4.2938    5.4013 H       1  UNL11       0.0618
     39 H          -3.5562   -2.3039    3.9429 H       1  UNL11       0.0624
     40 H           1.1219   -2.0093    1.1819 H       1  UNL11       0.0656
@<TRIPOS>BOND
     1     1     2    1
     2     1    25    1
     3     1    26    1
     4     1    27    1
     5     2     3    1
     6     2    28    1
     7     3     4    2
     8     3     5    2
     9     3     6    1
    10     6     7   ar
    11     7     8   ar
    12     7    29    1
    13     8     9   ar
    14     8    30    1
    15     9    10   ar
    16     9    31    1
    17    10    11    1
    18    10    24   ar
    19    11    12    1
    20    11    32    1
    21    12    13   ar
    22    13    14   ar
    23    14    15   ar
    24    14    33    1
    25    15    16   ar
    26    15    34    1
    27    16    17    1
    28    16    23   ar
    29    17    18   ar
    30    18    19   ar
    31    18    35    1
    32    19    20   ar
    33    19    36    1
    34    20    21   ar
    35    20    37    1
    36    21    22   ar
    37    21    38    1
    38    22    17   ar
    39    22    39    1
    40    23    12   ar
    41    24     6   ar
    42    24    40    1
@<TRIPOS>MOLECULE
*****
 40 42 0 0 0
SMALL
GASTEIGER

@<TRIPOS>ATOM
      1 C           1.4340   -4.1107    1.3773 C.3     1  UNL11       0.0059
      2 N           2.0962   -3.8492    2.6361 N.3     1  UNL11      -0.1930
      3 S           3.5452   -2.9363    2.4037 S.O2    1  UNL11       0.0582
      4 O           4.4983   -3.8345    1.6399 O.2     1  UNL11      -0.1531
      5 O           4.1180   -2.5000    3.7039 O.2     1  UNL11      -0.1531
      6 C           3.1913   -1.5592    1.3889 C.ar    1  UNL11       0.1070
      7 C           4.1813   -0.6686    1.0335 C.ar    1  UNL11      -0.0352
      8 C           3.9475    0.4122    0.2478 C.ar    1  UNL11      -0.0582
      9 C           2.6391    0.6143   -0.2115 C.ar    1  UNL11      -0.0404
     10 C           1.6111   -0.2230    0.0993 C.ar    1  UNL11       0.0354
     11 N           0.2984   -0.0228   -0.3350 N.pl3   1  UNL11      -0.2836
     12 C          -0.9032   -0.3983    0.3246 C.ar    1  UNL11       0.2200
     13 N          -1.9971   -0.7093   -0.3669 N.ar    1  UNL11      -0.2226
     14 C          -3.1539   -1.0691    0.1934 C.ar    1  UNL11       0.0332
     15 C          -3.1827   -1.1110    1.5846 C.ar    1  UNL11      -0.0174
     16 C          -2.0712   -0.7961    2.3316 C.ar    1  UNL11       0.0760
     17 C          -2.0854   -0.8355    3.7969 C.ar    1  UNL11       0.0005
     18 C          -1.3100   -0.0136    4.5517 C.ar    1  UNL11      -0.0526
     19 C          -1.3316   -0.0599    5.9520 C.ar    1  UNL11      -0.0611
     20 C          -2.1528   -0.9540    6.5782 C.ar    1  UNL11      -0.0617
     21 C          -2.9538   -1.8032    5.8146 C.ar    1  UNL11      -0.0611
     22 C          -2.9128   -1.7365    4.4332 C.ar    1  UNL11      -0.0526
     23 N          -0.9470   -0.4438    1.6803 N.ar    1  UNL11      -0.2142
     24 C           1.9271   -1.3201    0.9160 C.ar    1  UNL11      -0.0141
     25 H           1.3557   -3.1325    0.8257 H       1  UNL11       0.0405
     26 H           0.3903   -4.4279    1.5549 H       1  UNL11       0.0405
     27 H           2.0068   -4.8017    0.7318 H       1  UNL11       0.0405
     28 H           1.4409   -3.2613    3.2018 H       1  UNL11       0.1477
     29 H           5.1852   -0.8356    1.3939 H       1  UNL11       0.0637
     30 H           4.6944    1.1324   -0.0529 H       1  UNL11       0.0619
     31 H           2.5096    1.4916   -0.8501 H       1  UNL11       0.0636
     32 H           0.2084    0.4797   -1.2837 H       1  UNL11       0.1550
     33 H          -4.0454   -1.3221   -0.3851 H       1  UNL11       0.0831
     34 H          -4.1116   -1.4011    2.0857 H       1  UNL11       0.0654
     35 H          -0.6475    0.7064    4.1247 H       1  UNL11       0.0624
     36 H          -0.7057    0.6043    6.5128 H       1  UNL11       0.0618
     37 H          -2.2011   -1.0239    7.6616 H       1  UNL11       0.0618
     38 H          -3.5909   -2.4978    6.3532 H       1  UNL11       0.0618
     39 H          -3.5491   -2.4122    3.8879 H       1  UNL11       0.0624
     40 H           1.1219   -2.0093    1.1819 H       1  UNL11       0.0656
@<TRIPOS>BOND
     1     1     2    1
     2     1    25    1
     3     1    26    1
     4     1    27    1
     5     2     3    1
     6     2    28    1
     7     3     4    2
     8     3     5    2
     9     3     6    1
    10     6     7   ar
    11     7     8   ar
    12     7    29    1
    13     8     9   ar
    14     8    30    1
    15     9    10   ar
    16     9    31    1
    17    10    11    1
    18    10    24   ar
    19    11    12    1
    20    11    32    1
    21    12    13   ar
    22    13    14   ar
    23    14    15   ar
    24    14    33    1
    25    15    16   ar
    26    15    34    1
    27    16    17    1
    28    16    23   ar
    29    17    18   ar
    30    18    19   ar
    31    18    35    1
    32    19    20   ar
    33    19    36    1
    34    20    21   ar
    35    20    37    1
    36    21    22   ar
    37    21    38    1
    38    22    17   ar
    39    22    39    1
    40    23    12   ar
    41    24     6   ar
    42    24    40    1
@<TRIPOS>MOLECULE
*****
 40 42 0 0 0
SMALL
GASTEIGER

@<TRIPOS>ATOM
      1 C           5.2707   -4.0748    0.7861 C.3     1  UNL11       0.0059
      2 N           3.9772   -4.2760    1.4008 N.3     1  UNL11      -0.1930
      3 S           3.5452   -2.9363    2.4037 S.O2    1  UNL11       0.0582
      4 O           4.7776   -2.5985    3.2197 O.2     1  UNL11      -0.1531
      5 O           2.3826   -3.2671    3.2683 O.2     1  UNL11      -0.1531
      6 C           3.1913   -1.5592    1.3889 C.ar    1  UNL11       0.1070
      7 C           4.1813   -0.6686    1.0335 C.ar    1  UNL11      -0.0352
      8 C           3.9475    0.4122    0.2478 C.ar    1  UNL11      -0.0582
      9 C           2.6391    0.6143   -0.2115 C.ar    1  UNL11      -0.0404
     10 C           1.6111   -0.2230    0.0993 C.ar    1  UNL11       0.0354
     11 N           0.2984   -0.0228   -0.3350 N.pl3   1  UNL11      -0.2836
     12 C          -0.9032   -0.3983    0.3246 C.ar    1  UNL11       0.2200
     13 N          -1.9971   -0.7093   -0.3669 N.ar    1  UNL11      -0.2226
     14 C          -3.1539   -1.0691    0.1934 C.ar    1  UNL11       0.0332
     15 C          -3.1827   -1.1110    1.5846 C.ar    1  UNL11      -0.0174
     16 C          -2.0712   -0.7961    2.3316 C.ar    1  UNL11       0.0760
     17 C          -2.0854   -0.8355    3.7969 C.ar    1  UNL11       0.0005
     18 C          -0.9960   -0.5108    4.5414 C.ar    1  UNL11      -0.0526
     19 C          -1.0208   -0.5520    5.9418 C.ar    1  UNL11      -0.0611
     20 C          -2.1691   -0.9283    6.5788 C.ar    1  UNL11      -0.0617
     21 C          -3.2943   -1.2641    5.8258 C.ar    1  UNL11      -0.0611
     22 C          -3.2424   -1.2149    4.4440 C.ar    1  UNL11      -0.0526
     23 N          -0.9470   -0.4438    1.6803 N.ar    1  UNL11      -0.2142
     24 C           1.9271   -1.3201    0.9160 C.ar    1  UNL11      -0.0141
     25 H           5.2694   -3.0496    0.3211 H       1  UNL11       0.0405
     26 H           5.4042   -4.7759   -0.0578 H       1  UNL11       0.0405
     27 H           6.0975   -4.0968    1.5197 H       1  UNL11       0.0405
     28 H           3.2803   -4.3236    0.6216 H       1  UNL11       0.1477
     29 H           5.1852   -0.8356    1.3939 H       1  UNL11       0.0637
     30 H           4.6944    1.1324   -0.0529 H       1  UNL11       0.0619
     31 H           2.5096    1.4916   -0.8501 H       1  UNL11       0.0636
     32 H           0.2084    0.4797   -1.2837 H       1  UNL11       0.1550
     33 H          -4.0454   -1.3221   -0.3851 H       1  UNL11       0.0831
     34 H          -4.1116   -1.4011    2.0857 H       1  UNL11       0.0654
     35 H          -0.0693   -0.2090    4.1057 H       1  UNL11       0.0624
     36 H          -0.1417   -0.2889    6.4943 H       1  UNL11       0.0618
     37 H          -2.2326   -0.9743    7.6626 H       1  UNL11       0.0618
     38 H          -4.1850   -1.5573    6.3727 H       1  UNL11       0.0618
     39 H          -4.1361   -1.4830    3.9072 H       1  UNL11       0.0624
     40 H           1.1219   -2.0093    1.1819 H       1  UNL11       0.0656
@<TRIPOS>BOND
     1     1     2    1
     2     1    25    1
     3     1    26    1
     4     1    27    1
     5     2     3    1
     6     2    28    1
     7     3     4    2
     8     3     5    2
     9     3     6    1
    10     6     7   ar
    11     7     8   ar
    12     7    29    1
    13     8     9   ar
    14     8    30    1
    15     9    10   ar
    16     9    31    1
    17    10    11    1
    18    10    24   ar
    19    11    12    1
    20    11    32    1
    21    12    13   ar
    22    13    14   ar
    23    14    15   ar
    24    14    33    1
    25    15    16   ar
    26    15    34    1
    27    16    17    1
    28    16    23   ar
    29    17    18   ar
    30    18    19   ar
    31    18    35    1
    32    19    20   ar
    33    19    36    1
    34    20    21   ar
    35    20    37    1
    36    21    22   ar
    37    21    38    1
    38    22    17   ar
    39    22    39    1
    40    23    12   ar
    41    24     6   ar
    42    24    40    1
@<TRIPOS>MOLECULE
*****
 40 42 0 0 0
SMALL
GASTEIGER

@<TRIPOS>ATOM
      1 C           7.1728    0.1167   -0.2107 C.3     1  UNL11       0.0059
      2 N           6.7110   -1.0991   -0.8433 N.3     1  UNL11      -0.1930
      3 S           5.2074   -0.8490   -1.6580 S.O2    1  UNL11       0.0582
      4 O           4.9076   -2.1334   -2.4055 O.2     1  UNL11      -0.1531
      5 O           5.2818    0.3196   -2.5733 O.2     1  UNL11      -0.1531
      6 C           3.9481   -0.6253   -0.4682 C.ar    1  UNL11       0.1070
      7 C           4.2329   -0.6637    0.8798 C.ar    1  UNL11      -0.0352
      8 C           3.2842   -0.4946    1.8345 C.ar    1  UNL11      -0.0582
      9 C           1.9663   -0.2731    1.4130 C.ar    1  UNL11      -0.0404
     10 C           1.6111   -0.2230    0.0993 C.ar    1  UNL11       0.0354
     11 N           0.2984   -0.0228   -0.3350 N.pl3   1  UNL11      -0.2836
     12 C          -0.9032   -0.3983    0.3246 C.ar    1  UNL11       0.2200
     13 N          -0.9654   -0.4633    1.6525 N.ar    1  UNL11      -0.2226
     14 C          -2.0626   -0.8088    2.3297 C.ar    1  UNL11       0.0332
     15 C          -3.1897   -1.1124    1.5711 C.ar    1  UNL11      -0.0174
     16 C          -3.1619   -1.0558    0.1967 C.ar    1  UNL11       0.0760
     17 C          -4.3401   -1.3724   -0.6160 C.ar    1  UNL11       0.0005
     18 C          -4.5649   -0.7915   -1.8237 C.ar    1  UNL11      -0.0526
     19 C          -5.6947   -1.1016   -2.5924 C.ar    1  UNL11      -0.0611
     20 C          -6.5962   -2.0116   -2.1179 C.ar    1  UNL11      -0.0617
     21 C          -6.3767   -2.6150   -0.8795 C.ar    1  UNL11      -0.0611
     22 C          -5.2526   -2.2904   -0.1409 C.ar    1  UNL11      -0.0526
     23 N          -2.0104   -0.6973   -0.4012 N.ar    1  UNL11      -0.2142
     24 C           2.6449   -0.4061   -0.8324 C.ar    1  UNL11      -0.0141
     25 H           7.1215    0.9388   -0.9779 H       1  UNL11       0.0405
     26 H           8.2435    0.0280    0.0484 H       1  UNL11       0.0405
     27 H           6.5326    0.4240    0.6367 H       1  UNL11       0.0405
     28 H           7.4240   -1.3482   -1.5677 H       1  UNL11       0.1477
     29 H           5.2522   -0.8352    1.1915 H       1  UNL11       0.0637
     30 H           3.4661   -0.5176    2.8992 H       1  UNL11       0.0619
     31 H           1.2457   -0.1311    2.2221 H       1  UNL11       0.0636
     32 H           0.2084    0.4797   -1.2837 H       1  UNL11       0.1550
     33 H          -2.1013   -0.8585    3.4203 H       1  UNL11       0.0831
     34 H          -4.1116   -1.4007    2.0859 H       1  UNL11       0.0654
     35 H          -3.9002   -0.0735   -2.2506 H       1  UNL11       0.0624
     36 H          -5.8375   -0.6227   -3.5398 H       1  UNL11       0.0618
     37 H          -7.4857   -2.2816   -2.6807 H       1  UNL11       0.0618
     38 H          -7.1183   -3.3319   -0.5411 H       1  UNL11       0.0618
     39 H          -5.1274   -2.7824    0.8082 H       1  UNL11       0.0624
     40 H           2.3895   -0.3710   -1.8943 H       1  UNL11       0.0656
@<TRIPOS>BOND
     1     1     2    1
     2     1    25    1
     3     1    26    1
     4     1    27    1
     5     2     3    1
     6     2    28    1
     7     3     4    2
     8     3     5    2
     9     3     6    1
    10     6     7   ar
    11     7     8   ar
    12     7    29    1
    13     8     9   ar
    14     8    30    1
    15     9    10   ar
    16     9    31    1
    17    10    11    1
    18    10    24   ar
    19    11    12    1
    20    11    32    1
    21    12    13   ar
    22    13    14   ar
    23    14    15   ar
    24    14    33    1
    25    15    16   ar
    26    15    34    1
    27    16    17    1
    28    16    23   ar
    29    17    18   ar
    30    18    19   ar
    31    18    35    1
    32    19    20   ar
    33    19    36    1
    34    20    21   ar
    35    20    37    1
    36    21    22   ar
    37    21    38    1
    38    22    17   ar
    39    22    39    1
    40    23    12   ar
    41    24     6   ar
    42    24    40    1
@<TRIPOS>MOLECULE
*****
 40 42 0 0 0
SMALL
GASTEIGER

@<TRIPOS>ATOM
      1 C           1.4041   -1.4479    4.8338 C.3     1  UNL11       0.0059
      2 N           2.0289   -0.1792    4.5314 N.3     1  UNL11      -0.1930
      3 S           3.5122   -0.4005    3.6724 S.O2    1  UNL11       0.0582
      4 O           4.0172   -1.7818    4.0405 O.2     1  UNL11      -0.1531
      5 O           4.4954    0.6587    4.0192 O.2     1  UNL11      -0.1531
      6 C           3.1799   -0.4004    1.9575 C.ar    1  UNL11       0.1070
      7 C           4.1935   -0.5750    1.0400 C.ar    1  UNL11      -0.0352
      8 C           3.9769   -0.5813   -0.2991 C.ar    1  UNL11      -0.0582
      9 C           2.6618   -0.4015   -0.7484 C.ar    1  UNL11      -0.0404
     10 C           1.6111   -0.2230    0.0993 C.ar    1  UNL11       0.0354
     11 N           0.2984   -0.0228   -0.3350 N.pl3   1  UNL11      -0.2836
     12 C          -0.9032   -0.3983    0.3246 C.ar    1  UNL11       0.2200
     13 N          -2.0199    0.3096    0.1716 N.ar    1  UNL11      -0.2226
     14 C          -3.1781    0.0088    0.7630 C.ar    1  UNL11       0.0332
     15 C          -3.1827   -1.1178    1.5809 C.ar    1  UNL11      -0.0174
     16 C          -2.0472   -1.8731    1.7622 C.ar    1  UNL11       0.0760
     17 C          -2.0358   -3.0619    2.6199 C.ar    1  UNL11       0.0005
     18 C          -2.8542   -3.1860    3.6976 C.ar    1  UNL11      -0.0526
     19 C          -2.8349   -4.3270    4.5107 C.ar    1  UNL11      -0.0611
     20 C          -1.9716   -5.3435    4.2150 C.ar    1  UNL11      -0.0617
     21 C          -1.1263   -5.2281    3.1114 C.ar    1  UNL11      -0.0611
     22 C          -1.1659   -4.0903    2.3251 C.ar    1  UNL11      -0.0526
     23 N          -0.9235   -1.4940    1.1252 N.ar    1  UNL11      -0.2142
     24 C           1.9101   -0.2280    1.4708 C.ar    1  UNL11      -0.0141
     25 H           1.3750   -2.0471    3.8812 H       1  UNL11       0.0405
     26 H           0.3456   -1.2942    5.1122 H       1  UNL11       0.0405
     27 H           1.9781   -2.0389    5.5710 H       1  UNL11       0.0405
     28 H           1.3721    0.3340    3.8986 H       1  UNL11       0.1477
     29 H           5.2022   -0.7125    1.3991 H       1  UNL11       0.0637
     30 H           4.7425   -0.7148   -1.0496 H       1  UNL11       0.0619
     31 H           2.5424   -0.4278   -1.8343 H       1  UNL11       0.0636
     32 H           0.2084    0.4797   -1.2837 H       1  UNL11       0.1550
     33 H          -4.0883    0.5978    0.6296 H       1  UNL11       0.0831
     34 H          -4.1117   -1.4009    2.0856 H       1  UNL11       0.0654
     35 H          -3.5509   -2.4289    3.9825 H       1  UNL11       0.0624
     36 H          -3.4953   -4.3882    5.3518 H       1  UNL11       0.0618
     37 H          -1.9233   -6.2459    4.8185 H       1  UNL11       0.0618
     38 H          -0.4566   -6.0592    2.9133 H       1  UNL11       0.0618
     39 H          -0.4945   -4.0481    1.4848 H       1  UNL11       0.0624
     40 H           1.0865   -0.0870    2.1750 H       1  UNL11       0.0656
@<TRIPOS>BOND
     1     1     2    1
     2     1    25    1
     3     1    26    1
     4     1    27    1
     5     2     3    1
     6     2    28    1
     7     3     4    2
     8     3     5    2
     9     3     6    1
    10     6     7   ar
    11     7     8   ar
    12     7    29    1
    13     8     9   ar
    14     8    30    1
    15     9    10   ar
    16     9    31    1
    17    10    11    1
    18    10    24   ar
    19    11    12    1
    20    11    32    1
    21    12    13   ar
    22    13    14   ar
    23    14    15   ar
    24    14    33    1
    25    15    16   ar
    26    15    34    1
    27    16    17    1
    28    16    23   ar
    29    17    18   ar
    30    18    19   ar
    31    18    35    1
    32    19    20   ar
    33    19    36    1
    34    20    21   ar
    35    20    37    1
    36    21    22   ar
    37    21    38    1
    38    22    17   ar
    39    22    39    1
    40    23    12   ar
    41    24     6   ar
    42    24    40    1
@<TRIPOS>MOLECULE
*****
 40 42 0 0 0
SMALL
GASTEIGER

@<TRIPOS>ATOM
      1 C           6.0349    0.7884   -2.7478 C.3     1  UNL11       0.0059
      2 N           6.3630    0.7826   -1.3393 N.3     1  UNL11      -0.1930
      3 S           5.1750    1.6333   -0.4160 S.O2    1  UNL11       0.0582
      4 O           4.5315    2.6287   -1.3613 O.2     1  UNL11      -0.1531
      5 O           5.7893    2.3038    0.7595 O.2     1  UNL11      -0.1531
      6 C           3.9370    0.5090    0.0884 C.ar    1  UNL11       0.1070
      7 C           4.2448   -0.5720    0.8862 C.ar    1  UNL11      -0.0352
      8 C           3.3130   -1.4671    1.2992 C.ar    1  UNL11      -0.0582
      9 C           1.9885   -1.2674    0.8874 C.ar    1  UNL11      -0.0404
     10 C           1.6111   -0.2230    0.0993 C.ar    1  UNL11       0.0354
     11 N           0.2984   -0.0228   -0.3350 N.pl3   1  UNL11      -0.2836
     12 C          -0.9032   -0.3983    0.3246 C.ar    1  UNL11       0.2200
     13 N          -0.9654   -0.4633    1.6525 N.ar    1  UNL11      -0.2226
     14 C          -2.0626   -0.8088    2.3297 C.ar    1  UNL11       0.0332
     15 C          -3.1897   -1.1124    1.5711 C.ar    1  UNL11      -0.0174
     16 C          -3.1619   -1.0558    0.1967 C.ar    1  UNL11       0.0760
     17 C          -4.3401   -1.3724   -0.6160 C.ar    1  UNL11       0.0005
     18 C          -5.2876   -2.2559   -0.2058 C.ar    1  UNL11      -0.0526
     19 C          -6.4099   -2.5511   -0.9910 C.ar    1  UNL11      -0.0611
     20 C          -6.5587   -1.9362   -2.2016 C.ar    1  UNL11      -0.0617
     21 C          -5.5930   -1.0272   -2.6341 C.ar    1  UNL11      -0.0611
     22 C          -4.4942   -0.7541   -1.8388 C.ar    1  UNL11      -0.0526
     23 N          -2.0104   -0.6973   -0.4012 N.ar    1  UNL11      -0.2142
     24 C           2.6283    0.6628   -0.2893 C.ar    1  UNL11      -0.0141
     25 H           4.9614    0.4645   -2.8473 H       1  UNL11       0.0405
     26 H           6.6212    0.0164   -3.2784 H       1  UNL11       0.0405
     27 H           6.1125    1.7954   -3.1976 H       1  UNL11       0.0405
     28 H           6.3434   -0.2177   -1.0322 H       1  UNL11       0.1477
     29 H           5.2689   -0.7146    1.1965 H       1  UNL11       0.0637
     30 H           3.5131   -2.3258    1.9235 H       1  UNL11       0.0619
     31 H           1.2779   -2.0099    1.2587 H       1  UNL11       0.0636
     32 H           0.2084    0.4797   -1.2837 H       1  UNL11       0.1550
     33 H          -2.1013   -0.8585    3.4203 H       1  UNL11       0.0831
     34 H          -4.1116   -1.4007    2.0859 H       1  UNL11       0.0654
     35 H          -5.2307   -2.7696    0.7283 H       1  UNL11       0.0624
     36 H          -7.1355   -3.2534   -0.6335 H       1  UNL11       0.0618
     37 H          -7.4132   -2.1355   -2.8426 H       1  UNL11       0.0618
     38 H          -5.7510   -0.5620   -3.6021 H       1  UNL11       0.0618
     39 H          -3.7766   -0.0457   -2.2157 H       1  UNL11       0.0624
     40 H           2.3549    1.5107   -0.9221 H       1  UNL11       0.0656
@<TRIPOS>BOND
     1     1     2    1
     2     1    25    1
     3     1    26    1
     4     1    27    1
     5     2     3    1
     6     2    28    1
     7     3     4    2
     8     3     5    2
     9     3     6    1
    10     6     7   ar
    11     7     8   ar
    12     7    29    1
    13     8     9   ar
    14     8    30    1
    15     9    10   ar
    16     9    31    1
    17    10    11    1
    18    10    24   ar
    19    11    12    1
    20    11    32    1
    21    12    13   ar
    22    13    14   ar
    23    14    15   ar
    24    14    33    1
    25    15    16   ar
    26    15    34    1
    27    16    17    1
    28    16    23   ar
    29    17    18   ar
    30    18    19   ar
    31    18    35    1
    32    19    20   ar
    33    19    36    1
    34    20    21   ar
    35    20    37    1
    36    21    22   ar
    37    21    38    1
    38    22    17   ar
    39    22    39    1
    40    23    12   ar
    41    24     6   ar
    42    24    40    1
