@<TRIPOS>MOLECULE
*****
 34 36 0 0 0
SMALL
GASTEIGER

@<TRIPOS>ATOM
      1 O           3.2350   -4.2272   -4.0789 O.2     1  UNL11      -0.1300
      2 N           2.1864   -3.8006   -4.5953 N.4     1  UNL11       0.0061
      3 O           1.6483   -4.4713   -5.6654 O.2     1  UNL11      -0.3961
      4 C           1.5693   -2.6338   -4.0704 C.ar    1  UNL11       0.1251
      5 C           0.8481   -1.7850   -4.8738 C.ar    1  UNL11      -0.0314
      6 C           0.2568   -0.6533   -4.3329 C.ar    1  UNL11      -0.0561
      7 C           0.4003   -0.3825   -2.9628 C.ar    1  UNL11      -0.0191
      8 C           1.1192   -1.2273   -2.1589 C.ar    1  UNL11       0.1340
      9 O           1.2597   -0.9652   -0.8257 O.3     1  UNL11      -0.4235
     10 C           0.3049   -0.2805   -0.0737 C.ar    1  UNL11       0.3239
     11 N           0.7453    0.4547    0.9712 N.ar    1  UNL11      -0.2030
     12 C          -0.0835    1.1535    1.7622 C.ar    1  UNL11       0.0350
     13 C          -1.4489    1.0908    1.4581 C.ar    1  UNL11      -0.0173
     14 C          -1.9113    0.3472    0.3985 C.ar    1  UNL11       0.0778
     15 C          -3.3206    0.2574    0.0513 C.ar    1  UNL11       0.0006
     16 C          -4.2566    0.9443    0.8120 C.ar    1  UNL11      -0.0526
     17 C          -5.6110    0.8931    0.5251 C.ar    1  UNL11      -0.0611
     18 C          -6.0745    0.1533   -0.5323 C.ar    1  UNL11      -0.0617
     19 C          -5.1640   -0.5385   -1.3038 C.ar    1  UNL11      -0.0611
     20 C          -3.8110   -0.4704   -0.9945 C.ar    1  UNL11      -0.0526
     21 N          -0.9969   -0.3230   -0.3408 N.ar    1  UNL11      -0.1946
     22 C           1.6932   -2.3375   -2.7153 C.ar    1  UNL11       0.0108
     23 H           0.7488   -2.0129   -5.9335 H       1  UNL11       0.0640
     24 H          -0.3031   -0.0055   -4.9882 H       1  UNL11       0.0619
     25 H          -0.0841    0.5158   -2.5995 H       1  UNL11       0.0654
     26 H           0.2195    1.7539    2.6063 H       1  UNL11       0.0832
     27 H          -2.1642    1.6297    2.0558 H       1  UNL11       0.0654
     28 H          -3.9438    1.5436    1.6585 H       1  UNL11       0.0624
     29 H          -6.3444    1.4302    1.1197 H       1  UNL11       0.0618
     30 H          -7.1460    0.1317   -0.7343 H       1  UNL11       0.0618
     31 H          -5.5352   -1.1205   -2.1367 H       1  UNL11       0.0618
     32 H          -3.1556   -1.0363   -1.6401 H       1  UNL11       0.0624
     33 H           2.2642   -3.0206   -2.1093 H       1  UNL11       0.0677
     34 H           2.0703   -5.2392   -5.9973 H       1  UNL11       0.3292
@<TRIPOS>BOND
     1     1     2    2
     2     2     3    1
     3     2     4    1
     4     4     5   ar
     5     5     6   ar
     6     5    23    1
     7     6     7   ar
     8     6    24    1
     9     7     8   ar
    10     7    25    1
    11     8     9    1
    12     8    22   ar
    13     9    10    1
    14    10    11   ar
    15    11    12   ar
    16    12    13   ar
    17    12    26    1
    18    13    14   ar
    19    13    27    1
    20    14    15    1
    21    14    21   ar
    22    15    16   ar
    23    16    17   ar
    24    16    28    1
    25    17    18   ar
    26    17    29    1
    27    18    19   ar
    28    18    30    1
    29    19    20   ar
    30    19    31    1
    31    20    15   ar
    32    20    32    1
    33    21    10   ar
    34    22     4   ar
    35    22    33    1
    36     3    34    1
@<TRIPOS>MOLECULE
*****
 34 36 0 0 0
SMALL
GASTEIGER

@<TRIPOS>ATOM
      1 O           4.2879   -1.0234   -4.8198 O.2     1  UNL11      -0.1300
      2 N           3.2825   -1.6896   -5.1259 N.4     1  UNL11       0.0061
      3 O           3.3322   -2.5043   -6.2296 O.2     1  UNL11      -0.3961
      4 C           2.1088   -1.5949   -4.3315 C.ar    1  UNL11       0.1251
      5 C           0.8607   -1.7610   -4.8799 C.ar    1  UNL11      -0.0314
      6 C          -0.2673   -1.6628   -4.0792 C.ar    1  UNL11      -0.0561
      7 C          -0.1245   -1.3935   -2.7087 C.ar    1  UNL11      -0.0191
      8 C           1.1192   -1.2273   -2.1589 C.ar    1  UNL11       0.1340
      9 O           1.2597   -0.9652   -0.8257 O.3     1  UNL11      -0.4235
     10 C           0.3049   -0.2805   -0.0737 C.ar    1  UNL11       0.3239
     11 N           0.7453    0.4547    0.9712 N.ar    1  UNL11      -0.2030
     12 C          -0.0835    1.1535    1.7622 C.ar    1  UNL11       0.0350
     13 C          -1.4489    1.0908    1.4581 C.ar    1  UNL11      -0.0173
     14 C          -1.9113    0.3472    0.3985 C.ar    1  UNL11       0.0778
     15 C          -3.3206    0.2574    0.0513 C.ar    1  UNL11       0.0006
     16 C          -3.6870    0.0716   -1.2746 C.ar    1  UNL11      -0.0526
     17 C          -5.0145   -0.0206   -1.6598 C.ar    1  UNL11      -0.0611
     18 C          -6.0200    0.0699   -0.7319 C.ar    1  UNL11      -0.0617
     19 C          -5.6818    0.2547    0.5925 C.ar    1  UNL11      -0.0611
     20 C          -4.3426    0.3439    0.9524 C.ar    1  UNL11      -0.0526
     21 N          -0.9969   -0.3230   -0.3408 N.ar    1  UNL11      -0.1946
     22 C           2.2171   -1.3287   -2.9688 C.ar    1  UNL11       0.0108
     23 H           0.7715   -1.9691   -5.9445 H       1  UNL11       0.0640
     24 H          -1.2337   -1.7978   -4.5377 H       1  UNL11       0.0619
     25 H          -1.0418   -1.3286   -2.1360 H       1  UNL11       0.0654
     26 H           0.2195    1.7539    2.6063 H       1  UNL11       0.0832
     27 H          -2.1642    1.6297    2.0558 H       1  UNL11       0.0654
     28 H          -2.9320   -0.0064   -2.0475 H       1  UNL11       0.0624
     29 H          -5.3024   -0.1660   -2.6970 H       1  UNL11       0.0618
     30 H          -7.0559   -0.0062   -1.0644 H       1  UNL11       0.0618
     31 H          -6.4790    0.3254    1.3203 H       1  UNL11       0.0618
     32 H          -4.1509    0.4883    2.0055 H       1  UNL11       0.0624
     33 H           3.2080   -1.2033   -2.5661 H       1  UNL11       0.0677
     34 H           4.1158   -2.5532   -6.7409 H       1  UNL11       0.3292
@<TRIPOS>BOND
     1     1     2    2
     2     2     3    1
     3     2     4    1
     4     4     5   ar
     5     5     6   ar
     6     5    23    1
     7     6     7   ar
     8     6    24    1
     9     7     8   ar
    10     7    25    1
    11     8     9    1
    12     8    22   ar
    13     9    10    1
    14    10    11   ar
    15    11    12   ar
    16    12    13   ar
    17    12    26    1
    18    13    14   ar
    19    13    27    1
    20    14    15    1
    21    14    21   ar
    22    15    16   ar
    23    16    17   ar
    24    16    28    1
    25    17    18   ar
    26    17    29    1
    27    18    19   ar
    28    18    30    1
    29    19    20   ar
    30    19    31    1
    31    20    15   ar
    32    20    32    1
    33    21    10   ar
    34    22     4   ar
    35    22    33    1
    36     3    34    1
@<TRIPOS>MOLECULE
*****
 34 36 0 0 0
SMALL
GASTEIGER

@<TRIPOS>ATOM
      1 O           3.2350   -4.2272   -4.0789 O.2     1  UNL11      -0.1300
      2 N           2.1864   -3.8006   -4.5953 N.4     1  UNL11       0.0061
      3 O           1.6483   -4.4713   -5.6654 O.2     1  UNL11      -0.3961
      4 C           1.5693   -2.6338   -4.0704 C.ar    1  UNL11       0.1251
      5 C           0.8481   -1.7850   -4.8738 C.ar    1  UNL11      -0.0314
      6 C           0.2568   -0.6533   -4.3329 C.ar    1  UNL11      -0.0561
      7 C           0.4003   -0.3825   -2.9628 C.ar    1  UNL11      -0.0191
      8 C           1.1192   -1.2273   -2.1589 C.ar    1  UNL11       0.1340
      9 O           1.2597   -0.9652   -0.8257 O.3     1  UNL11      -0.4235
     10 C           0.3049   -0.2805   -0.0737 C.ar    1  UNL11       0.3239
     11 N           0.7453    0.4547    0.9712 N.ar    1  UNL11      -0.2030
     12 C          -0.0835    1.1535    1.7622 C.ar    1  UNL11       0.0350
     13 C          -1.4489    1.0908    1.4581 C.ar    1  UNL11      -0.0173
     14 C          -1.9113    0.3472    0.3985 C.ar    1  UNL11       0.0778
     15 C          -3.3206    0.2574    0.0513 C.ar    1  UNL11       0.0006
     16 C          -3.6870    0.0716   -1.2746 C.ar    1  UNL11      -0.0526
     17 C          -5.0145   -0.0206   -1.6598 C.ar    1  UNL11      -0.0611
     18 C          -6.0200    0.0699   -0.7319 C.ar    1  UNL11      -0.0617
     19 C          -5.6818    0.2547    0.5925 C.ar    1  UNL11      -0.0611
     20 C          -4.3426    0.3439    0.9524 C.ar    1  UNL11      -0.0526
     21 N          -0.9969   -0.3230   -0.3408 N.ar    1  UNL11      -0.1946
     22 C           1.6932   -2.3375   -2.7153 C.ar    1  UNL11       0.0108
     23 H           0.7488   -2.0129   -5.9335 H       1  UNL11       0.0640
     24 H          -0.3031   -0.0055   -4.9882 H       1  UNL11       0.0619
     25 H          -0.0841    0.5158   -2.5995 H       1  UNL11       0.0654
     26 H           0.2195    1.7539    2.6063 H       1  UNL11       0.0832
     27 H          -2.1642    1.6297    2.0558 H       1  UNL11       0.0654
     28 H          -2.9320   -0.0064   -2.0475 H       1  UNL11       0.0624
     29 H          -5.3024   -0.1660   -2.6970 H       1  UNL11       0.0618
     30 H          -7.0559   -0.0062   -1.0644 H       1  UNL11       0.0618
     31 H          -6.4790    0.3254    1.3203 H       1  UNL11       0.0618
     32 H          -4.1509    0.4883    2.0055 H       1  UNL11       0.0624
     33 H           2.2642   -3.0206   -2.1093 H       1  UNL11       0.0677
     34 H           2.0703   -5.2392   -5.9973 H       1  UNL11       0.3292
@<TRIPOS>BOND
     1     1     2    2
     2     2     3    1
     3     2     4    1
     4     4     5   ar
     5     5     6   ar
     6     5    23    1
     7     6     7   ar
     8     6    24    1
     9     7     8   ar
    10     7    25    1
    11     8     9    1
    12     8    22   ar
    13     9    10    1
    14    10    11   ar
    15    11    12   ar
    16    12    13   ar
    17    12    26    1
    18    13    14   ar
    19    13    27    1
    20    14    15    1
    21    14    21   ar
    22    15    16   ar
    23    16    17   ar
    24    16    28    1
    25    17    18   ar
    26    17    29    1
    27    18    19   ar
    28    18    30    1
    29    19    20   ar
    30    19    31    1
    31    20    15   ar
    32    20    32    1
    33    21    10   ar
    34    22     4   ar
    35    22    33    1
    36     3    34    1
@<TRIPOS>MOLECULE
*****
 34 36 0 0 0
SMALL
GASTEIGER

@<TRIPOS>ATOM
      1 O           3.7412   -2.7106   -4.8150 O.2     1  UNL11      -0.1300
      2 N           2.5305   -2.7721   -5.0952 N.4     1  UNL11       0.0061
      3 O           2.1565   -2.9558   -6.4031 O.2     1  UNL11      -0.3961
      4 C           1.5635   -2.6517   -4.0617 C.ar    1  UNL11       0.1251
      5 C           0.3471   -3.2838   -4.1453 C.ar    1  UNL11      -0.0314
      6 C          -0.5771   -3.1477   -3.1205 C.ar    1  UNL11      -0.0561
      7 C          -0.2614   -2.3619   -2.0007 C.ar    1  UNL11      -0.0191
      8 C           0.9511   -1.7301   -1.9145 C.ar    1  UNL11       0.1340
      9 O           1.2597   -0.9652   -0.8257 O.3     1  UNL11      -0.4235
     10 C           0.3049   -0.2805   -0.0737 C.ar    1  UNL11       0.3239
     11 N           0.7453    0.4547    0.9712 N.ar    1  UNL11      -0.2030
     12 C          -0.0835    1.1535    1.7622 C.ar    1  UNL11       0.0350
     13 C          -1.4489    1.0908    1.4581 C.ar    1  UNL11      -0.0173
     14 C          -1.9113    0.3472    0.3985 C.ar    1  UNL11       0.0778
     15 C          -3.3206    0.2574    0.0513 C.ar    1  UNL11       0.0006
     16 C          -4.1629    1.3241    0.3332 C.ar    1  UNL11      -0.0526
     17 C          -5.5128    1.2908    0.0238 C.ar    1  UNL11      -0.0611
     18 C          -6.0656    0.1896   -0.5781 C.ar    1  UNL11      -0.0617
     19 C          -5.2493   -0.8837   -0.8686 C.ar    1  UNL11      -0.0611
     20 C          -3.8985   -0.8248   -0.5477 C.ar    1  UNL11      -0.0526
     21 N          -0.9969   -0.3230   -0.3408 N.ar    1  UNL11      -0.1946
     22 C           1.8466   -1.8793   -2.9380 C.ar    1  UNL11       0.0108
     23 H           0.1218   -3.8885   -5.0219 H       1  UNL11       0.0640
     24 H          -1.5236   -3.6557   -3.2141 H       1  UNL11       0.0619
     25 H          -1.0236   -2.2940   -1.2339 H       1  UNL11       0.0654
     26 H           0.2195    1.7539    2.6063 H       1  UNL11       0.0832
     27 H          -2.1642    1.6297    2.0558 H       1  UNL11       0.0654
     28 H          -3.7773    2.2181    0.8081 H       1  UNL11       0.0624
     29 H          -6.1729    2.1249    0.2439 H       1  UNL11       0.0618
     30 H          -7.1312    0.1918   -0.8100 H       1  UNL11       0.0618
     31 H          -5.6905   -1.7497   -1.3434 H       1  UNL11       0.0618
     32 H          -3.3194   -1.6999   -0.8036 H       1  UNL11       0.0624
     33 H           2.8079   -1.3953   -2.8992 H       1  UNL11       0.0677
     34 H           2.8094   -3.0330   -7.0707 H       1  UNL11       0.3292
@<TRIPOS>BOND
     1     1     2    2
     2     2     3    1
     3     2     4    1
     4     4     5   ar
     5     5     6   ar
     6     5    23    1
     7     6     7   ar
     8     6    24    1
     9     7     8   ar
    10     7    25    1
    11     8     9    1
    12     8    22   ar
    13     9    10    1
    14    10    11   ar
    15    11    12   ar
    16    12    13   ar
    17    12    26    1
    18    13    14   ar
    19    13    27    1
    20    14    15    1
    21    14    21   ar
    22    15    16   ar
    23    16    17   ar
    24    16    28    1
    25    17    18   ar
    26    17    29    1
    27    18    19   ar
    28    18    30    1
    29    19    20   ar
    30    19    31    1
    31    20    15   ar
    32    20    32    1
    33    21    10   ar
    34    22     4   ar
    35    22    33    1
    36     3    34    1
@<TRIPOS>MOLECULE
*****
 34 36 0 0 0
SMALL
GASTEIGER

@<TRIPOS>ATOM
      1 O          -1.8175   -5.8625   -1.7828 O.2     1  UNL11      -0.1300
      2 N          -1.1598   -5.1136   -1.0379 N.4     1  UNL11       0.0061
      3 O          -1.3832   -5.1548    0.3158 O.2     1  UNL11      -0.3961
      4 C          -0.1954   -4.2350   -1.5998 C.ar    1  UNL11       0.1251
      5 C           0.4701   -4.5527   -2.7584 C.ar    1  UNL11      -0.0314
      6 C           1.4065   -3.6748   -3.2833 C.ar    1  UNL11      -0.0561
      7 C           1.6683   -2.4632   -2.6241 C.ar    1  UNL11      -0.0191
      8 C           1.0061   -2.1436   -1.4682 C.ar    1  UNL11       0.1340
      9 O           1.2597   -0.9652   -0.8257 O.3     1  UNL11      -0.4235
     10 C           0.3049   -0.2805   -0.0737 C.ar    1  UNL11       0.3239
     11 N           0.7453    0.4547    0.9712 N.ar    1  UNL11      -0.2030
     12 C          -0.0835    1.1535    1.7622 C.ar    1  UNL11       0.0350
     13 C          -1.4489    1.0908    1.4581 C.ar    1  UNL11      -0.0173
     14 C          -1.9113    0.3472    0.3985 C.ar    1  UNL11       0.0778
     15 C          -3.3206    0.2574    0.0513 C.ar    1  UNL11       0.0006
     16 C          -3.8052   -0.8994   -0.5434 C.ar    1  UNL11      -0.0526
     17 C          -5.1383   -1.0373   -0.8943 C.ar    1  UNL11      -0.0611
     18 C          -6.0313   -0.0230   -0.6620 C.ar    1  UNL11      -0.0617
     19 C          -5.5743    1.1370   -0.0720 C.ar    1  UNL11      -0.0611
     20 C          -4.2322    1.2499    0.2702 C.ar    1  UNL11      -0.0526
     21 N          -0.9969   -0.3230   -0.3408 N.ar    1  UNL11      -0.1946
     22 C           0.0867   -3.0256   -0.9696 C.ar    1  UNL11       0.0108
     23 H           0.2526   -5.4970   -3.2541 H       1  UNL11       0.0640
     24 H           1.9131   -3.9514   -4.1940 H       1  UNL11       0.0619
     25 H           2.4096   -1.8198   -3.0825 H       1  UNL11       0.0654
     26 H           0.2195    1.7539    2.6063 H       1  UNL11       0.0832
     27 H          -2.1642    1.6297    2.0558 H       1  UNL11       0.0654
     28 H          -3.1421   -1.7310   -0.7489 H       1  UNL11       0.0624
     29 H          -5.5187   -1.9421   -1.3597 H       1  UNL11       0.0618
     30 H          -7.0746   -0.1599   -0.9488 H       1  UNL11       0.0618
     31 H          -6.2831    1.9340    0.1089 H       1  UNL11       0.0618
     32 H          -3.9443    2.1848    0.7281 H       1  UNL11       0.0624
     33 H          -0.4502   -2.8026   -0.0630 H       1  UNL11       0.0677
     34 H          -2.0238   -5.7413    0.6673 H       1  UNL11       0.3292
@<TRIPOS>BOND
     1     1     2    2
     2     2     3    1
     3     2     4    1
     4     4     5   ar
     5     5     6   ar
     6     5    23    1
     7     6     7   ar
     8     6    24    1
     9     7     8   ar
    10     7    25    1
    11     8     9    1
    12     8    22   ar
    13     9    10    1
    14    10    11   ar
    15    11    12   ar
    16    12    13   ar
    17    12    26    1
    18    13    14   ar
    19    13    27    1
    20    14    15    1
    21    14    21   ar
    22    15    16   ar
    23    16    17   ar
    24    16    28    1
    25    17    18   ar
    26    17    29    1
    27    18    19   ar
    28    18    30    1
    29    19    20   ar
    30    19    31    1
    31    20    15   ar
    32    20    32    1
    33    21    10   ar
    34    22     4   ar
    35    22    33    1
    36     3    34    1
@<TRIPOS>MOLECULE
*****
 34 36 0 0 0
SMALL
GASTEIGER

@<TRIPOS>ATOM
      1 O          -1.1044   -0.1073   -6.1220 O.2     1  UNL11      -0.1300
      2 N          -0.4910    0.3017   -5.1197 N.4     1  UNL11       0.0061
      3 O          -0.5471    1.6357   -4.8010 O.2     1  UNL11      -0.3961
      4 C           0.2517   -0.6148   -4.3285 C.ar    1  UNL11       0.1251
      5 C           0.8177   -1.7382   -4.8798 C.ar    1  UNL11      -0.0314
      6 C           1.5373   -2.6150   -4.0822 C.ar    1  UNL11      -0.0561
      7 C           1.6826   -2.3470   -2.7117 C.ar    1  UNL11      -0.0191
      8 C           1.1192   -1.2273   -2.1589 C.ar    1  UNL11       0.1340
      9 O           1.2597   -0.9652   -0.8257 O.3     1  UNL11      -0.4235
     10 C           0.3049   -0.2805   -0.0737 C.ar    1  UNL11       0.3239
     11 N           0.7453    0.4547    0.9712 N.ar    1  UNL11      -0.2030
     12 C          -0.0835    1.1535    1.7622 C.ar    1  UNL11       0.0350
     13 C          -1.4489    1.0908    1.4581 C.ar    1  UNL11      -0.0173
     14 C          -1.9113    0.3472    0.3985 C.ar    1  UNL11       0.0778
     15 C          -3.3206    0.2574    0.0513 C.ar    1  UNL11       0.0006
     16 C          -3.6870    0.0716   -1.2746 C.ar    1  UNL11      -0.0526
     17 C          -5.0145   -0.0206   -1.6598 C.ar    1  UNL11      -0.0611
     18 C          -6.0200    0.0699   -0.7319 C.ar    1  UNL11      -0.0617
     19 C          -5.6818    0.2547    0.5925 C.ar    1  UNL11      -0.0611
     20 C          -4.3426    0.3439    0.9524 C.ar    1  UNL11      -0.0526
     21 N          -0.9969   -0.3230   -0.3408 N.ar    1  UNL11      -0.1946
     22 C           0.4138   -0.3771   -2.9659 C.ar    1  UNL11       0.0108
     23 H           0.6933   -1.9278   -5.9444 H       1  UNL11       0.0640
     24 H           1.9700   -3.4884   -4.5430 H       1  UNL11       0.0619
     25 H           2.2552   -3.0684   -2.1414 H       1  UNL11       0.0654
     26 H           0.2195    1.7539    2.6063 H       1  UNL11       0.0832
     27 H          -2.1642    1.6297    2.0558 H       1  UNL11       0.0654
     28 H          -2.9320   -0.0064   -2.0475 H       1  UNL11       0.0624
     29 H          -5.3024   -0.1660   -2.6970 H       1  UNL11       0.0618
     30 H          -7.0559   -0.0062   -1.0644 H       1  UNL11       0.0618
     31 H          -6.4790    0.3254    1.3203 H       1  UNL11       0.0618
     32 H          -4.1509    0.4883    2.0055 H       1  UNL11       0.0624
     33 H          -0.0407    0.5113   -2.5608 H       1  UNL11       0.0677
     34 H          -1.0424    2.2247   -5.3356 H       1  UNL11       0.3292
@<TRIPOS>BOND
     1     1     2    2
     2     2     3    1
     3     2     4    1
     4     4     5   ar
     5     5     6   ar
     6     5    23    1
     7     6     7   ar
     8     6    24    1
     9     7     8   ar
    10     7    25    1
    11     8     9    1
    12     8    22   ar
    13     9    10    1
    14    10    11   ar
    15    11    12   ar
    16    12    13   ar
    17    12    26    1
    18    13    14   ar
    19    13    27    1
    20    14    15    1
    21    14    21   ar
    22    15    16   ar
    23    16    17   ar
    24    16    28    1
    25    17    18   ar
    26    17    29    1
    27    18    19   ar
    28    18    30    1
    29    19    20   ar
    30    19    31    1
    31    20    15   ar
    32    20    32    1
    33    21    10   ar
    34    22     4   ar
    35    22    33    1
    36     3    34    1
@<TRIPOS>MOLECULE
*****
 34 36 0 0 0
SMALL
GASTEIGER

@<TRIPOS>ATOM
      1 O           7.0618   -1.7497   -1.1356 O.2     1  UNL11      -0.1300
      2 N           5.9045   -1.9863   -1.5267 N.4     1  UNL11       0.0061
      3 O           5.6388   -3.1858   -2.1389 O.2     1  UNL11      -0.3961
      4 C           4.8857   -1.0155   -1.3332 C.ar    1  UNL11       0.1251
      5 C           5.1754    0.3266   -1.3021 C.ar    1  UNL11      -0.0314
      6 C           4.1597    1.2511   -1.1115 C.ar    1  UNL11      -0.0561
      7 C           2.8376    0.8067   -0.9511 C.ar    1  UNL11      -0.0191
      8 C           2.5455   -0.5313   -0.9816 C.ar    1  UNL11       0.1340
      9 O           1.2597   -0.9652   -0.8257 O.3     1  UNL11      -0.4235
     10 C           0.3049   -0.2805   -0.0737 C.ar    1  UNL11       0.3239
     11 N           0.7453    0.4547    0.9712 N.ar    1  UNL11      -0.2030
     12 C          -0.0835    1.1535    1.7622 C.ar    1  UNL11       0.0350
     13 C          -1.4489    1.0908    1.4581 C.ar    1  UNL11      -0.0173
     14 C          -1.9113    0.3472    0.3985 C.ar    1  UNL11       0.0778
     15 C          -3.3206    0.2574    0.0513 C.ar    1  UNL11       0.0006
     16 C          -3.6870    0.0716   -1.2746 C.ar    1  UNL11      -0.0526
     17 C          -5.0145   -0.0206   -1.6598 C.ar    1  UNL11      -0.0611
     18 C          -6.0200    0.0699   -0.7319 C.ar    1  UNL11      -0.0617
     19 C          -5.6818    0.2547    0.5925 C.ar    1  UNL11      -0.0611
     20 C          -4.3426    0.3439    0.9524 C.ar    1  UNL11      -0.0526
     21 N          -0.9969   -0.3230   -0.3408 N.ar    1  UNL11      -0.1946
     22 C           3.5644   -1.4245   -1.1710 C.ar    1  UNL11       0.0108
     23 H           6.2069    0.6505   -1.4285 H       1  UNL11       0.0640
     24 H           4.4175    2.2979   -1.0916 H       1  UNL11       0.0619
     25 H           2.0888    1.5761   -0.8059 H       1  UNL11       0.0654
     26 H           0.2195    1.7539    2.6063 H       1  UNL11       0.0832
     27 H          -2.1642    1.6297    2.0558 H       1  UNL11       0.0654
     28 H          -2.9320   -0.0064   -2.0475 H       1  UNL11       0.0624
     29 H          -5.3024   -0.1660   -2.6970 H       1  UNL11       0.0618
     30 H          -7.0559   -0.0062   -1.0644 H       1  UNL11       0.0618
     31 H          -6.4790    0.3254    1.3203 H       1  UNL11       0.0618
     32 H          -4.1509    0.4883    2.0055 H       1  UNL11       0.0624
     33 H           3.3665   -2.4827   -1.1999 H       1  UNL11       0.0677
     34 H           6.3245   -3.8134   -2.2573 H       1  UNL11       0.3292
@<TRIPOS>BOND
     1     1     2    2
     2     2     3    1
     3     2     4    1
     4     4     5   ar
     5     5     6   ar
     6     5    23    1
     7     6     7   ar
     8     6    24    1
     9     7     8   ar
    10     7    25    1
    11     8     9    1
    12     8    22   ar
    13     9    10    1
    14    10    11   ar
    15    11    12   ar
    16    12    13   ar
    17    12    26    1
    18    13    14   ar
    19    13    27    1
    20    14    15    1
    21    14    21   ar
    22    15    16   ar
    23    16    17   ar
    24    16    28    1
    25    17    18   ar
    26    17    29    1
    27    18    19   ar
    28    18    30    1
    29    19    20   ar
    30    19    31    1
    31    20    15   ar
    32    20    32    1
    33    21    10   ar
    34    22     4   ar
    35    22    33    1
    36     3    34    1
@<TRIPOS>MOLECULE
*****
 34 36 0 0 0
SMALL
GASTEIGER

@<TRIPOS>ATOM
      1 O           2.2764   -3.4638   -6.0978 O.2     1  UNL11      -0.1300
      2 N           2.5305   -2.7721   -5.0952 N.4     1  UNL11       0.0061
      3 O           3.7454   -2.1386   -5.0117 O.2     1  UNL11      -0.3961
      4 C           1.5635   -2.6517   -4.0617 C.ar    1  UNL11       0.1251
      5 C           0.3471   -3.2838   -4.1453 C.ar    1  UNL11      -0.0314
      6 C          -0.5771   -3.1477   -3.1205 C.ar    1  UNL11      -0.0561
      7 C          -0.2614   -2.3619   -2.0007 C.ar    1  UNL11      -0.0191
      8 C           0.9511   -1.7301   -1.9145 C.ar    1  UNL11       0.1340
      9 O           1.2597   -0.9652   -0.8257 O.3     1  UNL11      -0.4235
     10 C           0.3049   -0.2805   -0.0737 C.ar    1  UNL11       0.3239
     11 N           0.7453    0.4547    0.9712 N.ar    1  UNL11      -0.2030
     12 C          -0.0835    1.1535    1.7622 C.ar    1  UNL11       0.0350
     13 C          -1.4489    1.0908    1.4581 C.ar    1  UNL11      -0.0173
     14 C          -1.9113    0.3472    0.3985 C.ar    1  UNL11       0.0778
     15 C          -3.3206    0.2574    0.0513 C.ar    1  UNL11       0.0006
     16 C          -3.7100   -0.5256   -1.0266 C.ar    1  UNL11      -0.0526
     17 C          -5.0386   -0.6459   -1.4003 C.ar    1  UNL11      -0.0611
     18 C          -6.0222    0.0128   -0.7082 C.ar    1  UNL11      -0.0617
     19 C          -5.6608    0.7974    0.3672 C.ar    1  UNL11      -0.0611
     20 C          -4.3211    0.9011    0.7211 C.ar    1  UNL11      -0.0526
     21 N          -0.9969   -0.3230   -0.3408 N.ar    1  UNL11      -0.1946
     22 C           1.8466   -1.8793   -2.9380 C.ar    1  UNL11       0.0108
     23 H           0.1218   -3.8885   -5.0219 H       1  UNL11       0.0640
     24 H          -1.5236   -3.6557   -3.2141 H       1  UNL11       0.0619
     25 H          -1.0236   -2.2940   -1.2339 H       1  UNL11       0.0654
     26 H           0.2195    1.7539    2.6063 H       1  UNL11       0.0832
     27 H          -2.1642    1.6297    2.0558 H       1  UNL11       0.0654
     28 H          -2.9729   -1.0671   -1.6072 H       1  UNL11       0.0624
     29 H          -5.3445   -1.2584   -2.2435 H       1  UNL11       0.0618
     30 H          -7.0595   -0.1007   -1.0252 H       1  UNL11       0.0618
     31 H          -6.4409    1.3148    0.9095 H       1  UNL11       0.0618
     32 H          -4.1106    1.5317    1.5724 H       1  UNL11       0.0624
     33 H           2.8079   -1.3953   -2.8992 H       1  UNL11       0.0677
     34 H           4.3701   -2.2304   -5.7040 H       1  UNL11       0.3292
@<TRIPOS>BOND
     1     1     2    2
     2     2     3    1
     3     2     4    1
     4     4     5   ar
     5     5     6   ar
     6     5    23    1
     7     6     7   ar
     8     6    24    1
     9     7     8   ar
    10     7    25    1
    11     8     9    1
    12     8    22   ar
    13     9    10    1
    14    10    11   ar
    15    11    12   ar
    16    12    13   ar
    17    12    26    1
    18    13    14   ar
    19    13    27    1
    20    14    15    1
    21    14    21   ar
    22    15    16   ar
    23    16    17   ar
    24    16    28    1
    25    17    18   ar
    26    17    29    1
    27    18    19   ar
    28    18    30    1
    29    19    20   ar
    30    19    31    1
    31    20    15   ar
    32    20    32    1
    33    21    10   ar
    34    22     4   ar
    35    22    33    1
    36     3    34    1
@<TRIPOS>MOLECULE
*****
 34 36 0 0 0
SMALL
GASTEIGER

@<TRIPOS>ATOM
      1 O          -2.5190   -4.2566   -0.9465 O.2     1  UNL11      -0.1300
      2 N          -1.8351   -4.4626   -1.9654 N.4     1  UNL11       0.0061
      3 O          -2.3632   -5.2184   -2.9823 O.2     1  UNL11      -0.3961
      4 C          -0.5278   -3.9146   -2.0562 C.ar    1  UNL11       0.1251
      5 C           0.4624   -4.5452   -2.7690 C.ar    1  UNL11      -0.0314
      6 C           1.7295   -3.9862   -2.8398 C.ar    1  UNL11      -0.0561
      7 C           1.9917   -2.7750   -2.1800 C.ar    1  UNL11      -0.0191
      8 C           1.0061   -2.1436   -1.4682 C.ar    1  UNL11       0.1340
      9 O           1.2597   -0.9652   -0.8257 O.3     1  UNL11      -0.4235
     10 C           0.3049   -0.2805   -0.0737 C.ar    1  UNL11       0.3239
     11 N           0.7453    0.4547    0.9712 N.ar    1  UNL11      -0.2030
     12 C          -0.0835    1.1535    1.7622 C.ar    1  UNL11       0.0350
     13 C          -1.4489    1.0908    1.4581 C.ar    1  UNL11      -0.0173
     14 C          -1.9113    0.3472    0.3985 C.ar    1  UNL11       0.0778
     15 C          -3.3206    0.2574    0.0513 C.ar    1  UNL11       0.0006
     16 C          -3.6870    0.0716   -1.2746 C.ar    1  UNL11      -0.0526
     17 C          -5.0145   -0.0206   -1.6598 C.ar    1  UNL11      -0.0611
     18 C          -6.0200    0.0699   -0.7319 C.ar    1  UNL11      -0.0617
     19 C          -5.6818    0.2547    0.5925 C.ar    1  UNL11      -0.0611
     20 C          -4.3426    0.3439    0.9524 C.ar    1  UNL11      -0.0526
     21 N          -0.9969   -0.3230   -0.3408 N.ar    1  UNL11      -0.1946
     22 C          -0.2360   -2.7145   -1.4128 C.ar    1  UNL11       0.0108
     23 H           0.2386   -5.4835   -3.2734 H       1  UNL11       0.0640
     24 H           2.4864   -4.5041   -3.4066 H       1  UNL11       0.0619
     25 H           2.9996   -2.3886   -2.2722 H       1  UNL11       0.0654
     26 H           0.2195    1.7539    2.6063 H       1  UNL11       0.0832
     27 H          -2.1642    1.6297    2.0558 H       1  UNL11       0.0654
     28 H          -2.9320   -0.0064   -2.0475 H       1  UNL11       0.0624
     29 H          -5.3024   -0.1660   -2.6970 H       1  UNL11       0.0618
     30 H          -7.0559   -0.0062   -1.0644 H       1  UNL11       0.0618
     31 H          -6.4790    0.3254    1.3203 H       1  UNL11       0.0618
     32 H          -4.1509    0.4883    2.0055 H       1  UNL11       0.0624
     33 H          -1.0315   -2.2421   -0.8614 H       1  UNL11       0.0677
     34 H          -3.2277   -5.5712   -2.9035 H       1  UNL11       0.3292
@<TRIPOS>BOND
     1     1     2    2
     2     2     3    1
     3     2     4    1
     4     4     5   ar
     5     5     6   ar
     6     5    23    1
     7     6     7   ar
     8     6    24    1
     9     7     8   ar
    10     7    25    1
    11     8     9    1
    12     8    22   ar
    13     9    10    1
    14    10    11   ar
    15    11    12   ar
    16    12    13   ar
    17    12    26    1
    18    13    14   ar
    19    13    27    1
    20    14    15    1
    21    14    21   ar
    22    15    16   ar
    23    16    17   ar
    24    16    28    1
    25    17    18   ar
    26    17    29    1
    27    18    19   ar
    28    18    30    1
    29    19    20   ar
    30    19    31    1
    31    20    15   ar
    32    20    32    1
    33    21    10   ar
    34    22     4   ar
    35    22    33    1
    36     3    34    1
@<TRIPOS>MOLECULE
*****
 34 36 0 0 0
SMALL
GASTEIGER

@<TRIPOS>ATOM
      1 O           3.2894   -2.4278   -6.1276 O.2     1  UNL11      -0.1300
      2 N           3.2825   -1.6896   -5.1259 N.4     1  UNL11       0.0061
      3 O           4.4152   -0.9809   -4.8111 O.2     1  UNL11      -0.3961
      4 C           2.1088   -1.5949   -4.3315 C.ar    1  UNL11       0.1251
      5 C           0.8607   -1.7610   -4.8799 C.ar    1  UNL11      -0.0314
      6 C          -0.2673   -1.6628   -4.0792 C.ar    1  UNL11      -0.0561
      7 C          -0.1245   -1.3935   -2.7087 C.ar    1  UNL11      -0.0191
      8 C           1.1192   -1.2273   -2.1589 C.ar    1  UNL11       0.1340
      9 O           1.2597   -0.9652   -0.8257 O.3     1  UNL11      -0.4235
     10 C           0.3049   -0.2805   -0.0737 C.ar    1  UNL11       0.3239
     11 N           0.7453    0.4547    0.9712 N.ar    1  UNL11      -0.2030
     12 C          -0.0835    1.1535    1.7622 C.ar    1  UNL11       0.0350
     13 C          -1.4489    1.0908    1.4581 C.ar    1  UNL11      -0.0173
     14 C          -1.9113    0.3472    0.3985 C.ar    1  UNL11       0.0778
     15 C          -3.3206    0.2574    0.0513 C.ar    1  UNL11       0.0006
     16 C          -3.8052   -0.8994   -0.5434 C.ar    1  UNL11      -0.0526
     17 C          -5.1383   -1.0373   -0.8943 C.ar    1  UNL11      -0.0611
     18 C          -6.0313   -0.0230   -0.6620 C.ar    1  UNL11      -0.0617
     19 C          -5.5743    1.1370   -0.0720 C.ar    1  UNL11      -0.0611
     20 C          -4.2322    1.2499    0.2702 C.ar    1  UNL11      -0.0526
     21 N          -0.9969   -0.3230   -0.3408 N.ar    1  UNL11      -0.1946
     22 C           2.2171   -1.3287   -2.9688 C.ar    1  UNL11       0.0108
     23 H           0.7715   -1.9691   -5.9445 H       1  UNL11       0.0640
     24 H          -1.2337   -1.7978   -4.5377 H       1  UNL11       0.0619
     25 H          -1.0418   -1.3286   -2.1360 H       1  UNL11       0.0654
     26 H           0.2195    1.7539    2.6063 H       1  UNL11       0.0832
     27 H          -2.1642    1.6297    2.0558 H       1  UNL11       0.0654
     28 H          -3.1421   -1.7310   -0.7489 H       1  UNL11       0.0624
     29 H          -5.5187   -1.9421   -1.3597 H       1  UNL11       0.0618
     30 H          -7.0746   -0.1599   -0.9488 H       1  UNL11       0.0618
     31 H          -6.2831    1.9340    0.1089 H       1  UNL11       0.0618
     32 H          -3.9443    2.1848    0.7281 H       1  UNL11       0.0624
     33 H           3.2080   -1.2033   -2.5661 H       1  UNL11       0.0677
     34 H           5.1796   -1.0568   -5.3477 H       1  UNL11       0.3292
@<TRIPOS>BOND
     1     1     2    2
     2     2     3    1
     3     2     4    1
     4     4     5   ar
     5     5     6   ar
     6     5    23    1
     7     6     7   ar
     8     6    24    1
     9     7     8   ar
    10     7    25    1
    11     8     9    1
    12     8    22   ar
    13     9    10    1
    14    10    11   ar
    15    11    12   ar
    16    12    13   ar
    17    12    26    1
    18    13    14   ar
    19    13    27    1
    20    14    15    1
    21    14    21   ar
    22    15    16   ar
    23    16    17   ar
    24    16    28    1
    25    17    18   ar
    26    17    29    1
    27    18    19   ar
    28    18    30    1
    29    19    20   ar
    30    19    31    1
    31    20    15   ar
    32    20    32    1
    33    21    10   ar
    34    22     4   ar
    35    22    33    1
    36     3    34    1
@<TRIPOS>MOLECULE
*****
 34 36 0 0 0
SMALL
GASTEIGER

@<TRIPOS>ATOM
      1 O           7.0360   -1.9553   -0.9785 O.2     1  UNL11      -0.1300
      2 N           5.8920   -2.0879   -1.4497 N.4     1  UNL11       0.0061
      3 O           5.7468   -2.3169   -2.7954 O.2     1  UNL11      -0.3961
      4 C           4.7642   -2.0004   -0.5907 C.ar    1  UNL11       0.1251
      5 C           4.8427   -2.3692    0.7299 C.ar    1  UNL11      -0.0314
      6 C           3.7246   -2.2727    1.5446 C.ar    1  UNL11      -0.0561
      7 C           2.5161   -1.7969    1.0114 C.ar    1  UNL11      -0.0191
      8 C           2.4348   -1.4283   -0.3055 C.ar    1  UNL11       0.1340
      9 O           1.2597   -0.9652   -0.8257 O.3     1  UNL11      -0.4235
     10 C           0.3049   -0.2805   -0.0737 C.ar    1  UNL11       0.3239
     11 N           0.7453    0.4547    0.9712 N.ar    1  UNL11      -0.2030
     12 C          -0.0835    1.1535    1.7622 C.ar    1  UNL11       0.0350
     13 C          -1.4489    1.0908    1.4581 C.ar    1  UNL11      -0.0173
     14 C          -1.9113    0.3472    0.3985 C.ar    1  UNL11       0.0778
     15 C          -3.3206    0.2574    0.0513 C.ar    1  UNL11       0.0006
     16 C          -4.2566    0.9443    0.8120 C.ar    1  UNL11      -0.0526
     17 C          -5.6110    0.8931    0.5251 C.ar    1  UNL11      -0.0611
     18 C          -6.0745    0.1533   -0.5323 C.ar    1  UNL11      -0.0617
     19 C          -5.1640   -0.5385   -1.3038 C.ar    1  UNL11      -0.0611
     20 C          -3.8110   -0.4704   -0.9945 C.ar    1  UNL11      -0.0526
     21 N          -0.9969   -0.3230   -0.3408 N.ar    1  UNL11      -0.1946
     22 C           3.5511   -1.5323   -1.0895 C.ar    1  UNL11       0.0108
     23 H           5.7889   -2.7356    1.1238 H       1  UNL11       0.0640
     24 H           3.8165   -2.5696    2.5770 H       1  UNL11       0.0619
     25 H           1.6788   -1.7444    1.6968 H       1  UNL11       0.0654
     26 H           0.2195    1.7539    2.6063 H       1  UNL11       0.0832
     27 H          -2.1642    1.6297    2.0558 H       1  UNL11       0.0654
     28 H          -3.9438    1.5436    1.6585 H       1  UNL11       0.0624
     29 H          -6.3444    1.4302    1.1197 H       1  UNL11       0.0618
     30 H          -7.1460    0.1317   -0.7343 H       1  UNL11       0.0618
     31 H          -5.5352   -1.1205   -2.1367 H       1  UNL11       0.0618
     32 H          -3.1556   -1.0363   -1.6401 H       1  UNL11       0.0624
     33 H           3.5187   -1.2503   -2.1284 H       1  UNL11       0.0677
     34 H           6.5032   -2.3713   -3.3457 H       1  UNL11       0.3292
@<TRIPOS>BOND
     1     1     2    2
     2     2     3    1
     3     2     4    1
     4     4     5   ar
     5     5     6   ar
     6     5    23    1
     7     6     7   ar
     8     6    24    1
     9     7     8   ar
    10     7    25    1
    11     8     9    1
    12     8    22   ar
    13     9    10    1
    14    10    11   ar
    15    11    12   ar
    16    12    13   ar
    17    12    26    1
    18    13    14   ar
    19    13    27    1
    20    14    15    1
    21    14    21   ar
    22    15    16   ar
    23    16    17   ar
    24    16    28    1
    25    17    18   ar
    26    17    29    1
    27    18    19   ar
    28    18    30    1
    29    19    20   ar
    30    19    31    1
    31    20    15   ar
    32    20    32    1
    33    21    10   ar
    34    22     4   ar
    35    22    33    1
    36     3    34    1
@<TRIPOS>MOLECULE
*****
 34 36 0 0 0
SMALL
GASTEIGER

@<TRIPOS>ATOM
      1 O           6.7560   -2.9624   -1.2394 O.2     1  UNL11      -0.1300
      2 N           5.5580   -3.1146   -0.9393 N.4     1  UNL11       0.0061
      3 O           5.0242   -4.3792   -0.9437 O.2     1  UNL11      -0.3961
      4 C           4.7699   -1.9827   -0.5997 C.ar    1  UNL11       0.1251
      5 C           5.3293   -0.8734   -0.0142 C.ar    1  UNL11      -0.0314
      6 C           4.5346    0.2169    0.3062 C.ar    1  UNL11      -0.0561
      7 C           3.1589    0.1786    0.0287 C.ar    1  UNL11      -0.0191
      8 C           2.5980   -0.9265   -0.5551 C.ar    1  UNL11       0.1340
      9 O           1.2597   -0.9652   -0.8257 O.3     1  UNL11      -0.4235
     10 C           0.3049   -0.2805   -0.0737 C.ar    1  UNL11       0.3239
     11 N           0.7453    0.4547    0.9712 N.ar    1  UNL11      -0.2030
     12 C          -0.0835    1.1535    1.7622 C.ar    1  UNL11       0.0350
     13 C          -1.4489    1.0908    1.4581 C.ar    1  UNL11      -0.0173
     14 C          -1.9113    0.3472    0.3985 C.ar    1  UNL11       0.0778
     15 C          -3.3206    0.2574    0.0513 C.ar    1  UNL11       0.0006
     16 C          -4.1629    1.3241    0.3332 C.ar    1  UNL11      -0.0526
     17 C          -5.5128    1.2908    0.0238 C.ar    1  UNL11      -0.0611
     18 C          -6.0656    0.1896   -0.5781 C.ar    1  UNL11      -0.0617
     19 C          -5.2493   -0.8837   -0.8686 C.ar    1  UNL11      -0.0611
     20 C          -3.8985   -0.8248   -0.5477 C.ar    1  UNL11      -0.0526
     21 N          -0.9969   -0.3230   -0.3408 N.ar    1  UNL11      -0.1946
     22 C           3.4023   -1.9898   -0.8621 C.ar    1  UNL11       0.0108
     23 H           6.3979   -0.8637    0.1927 H       1  UNL11       0.0640
     24 H           5.0018    1.0735    0.7650 H       1  UNL11       0.0619
     25 H           2.5912    1.0600    0.3019 H       1  UNL11       0.0654
     26 H           0.2195    1.7539    2.6063 H       1  UNL11       0.0832
     27 H          -2.1642    1.6297    2.0558 H       1  UNL11       0.0654
     28 H          -3.7773    2.2181    0.8081 H       1  UNL11       0.0624
     29 H          -6.1729    2.1249    0.2439 H       1  UNL11       0.0618
     30 H          -7.1312    0.1918   -0.8100 H       1  UNL11       0.0618
     31 H          -5.6905   -1.7497   -1.3434 H       1  UNL11       0.0618
     32 H          -3.3194   -1.6999   -0.8036 H       1  UNL11       0.0624
     33 H           2.9909   -2.8726   -1.3217 H       1  UNL11       0.0677
     34 H           5.5604   -5.1133   -1.1707 H       1  UNL11       0.3292
@<TRIPOS>BOND
     1     1     2    2
     2     2     3    1
     3     2     4    1
     4     4     5   ar
     5     5     6   ar
     6     5    23    1
     7     6     7   ar
     8     6    24    1
     9     7     8   ar
    10     7    25    1
    11     8     9    1
    12     8    22   ar
    13     9    10    1
    14    10    11   ar
    15    11    12   ar
    16    12    13   ar
    17    12    26    1
    18    13    14   ar
    19    13    27    1
    20    14    15    1
    21    14    21   ar
    22    15    16   ar
    23    16    17   ar
    24    16    28    1
    25    17    18   ar
    26    17    29    1
    27    18    19   ar
    28    18    30    1
    29    19    20   ar
    30    19    31    1
    31    20    15   ar
    32    20    32    1
    33    21    10   ar
    34    22     4   ar
    35    22    33    1
    36     3    34    1
@<TRIPOS>MOLECULE
*****
 34 36 0 0 0
SMALL
GASTEIGER

@<TRIPOS>ATOM
      1 O           5.4729   -0.7843   -3.5341 O.2     1  UNL11      -0.1300
      2 N           5.7971   -1.1777   -2.3990 N.4     1  UNL11       0.0061
      3 O           7.0323   -1.7485   -2.2179 O.2     1  UNL11      -0.3961
      4 C           4.8876   -1.0294   -1.3180 C.ar    1  UNL11       0.1251
      5 C           5.3320   -0.8513   -0.0308 C.ar    1  UNL11      -0.0314
      6 C           4.4203   -0.7093    1.0043 C.ar    1  UNL11      -0.0561
      7 C           3.0444   -0.7488    0.7278 C.ar    1  UNL11      -0.0191
      8 C           2.5980   -0.9265   -0.5551 C.ar    1  UNL11       0.1340
      9 O           1.2597   -0.9652   -0.8257 O.3     1  UNL11      -0.4235
     10 C           0.3049   -0.2805   -0.0737 C.ar    1  UNL11       0.3239
     11 N           0.7453    0.4547    0.9712 N.ar    1  UNL11      -0.2030
     12 C          -0.0835    1.1535    1.7622 C.ar    1  UNL11       0.0350
     13 C          -1.4489    1.0908    1.4581 C.ar    1  UNL11      -0.0173
     14 C          -1.9113    0.3472    0.3985 C.ar    1  UNL11       0.0778
     15 C          -3.3206    0.2574    0.0513 C.ar    1  UNL11       0.0006
     16 C          -4.1629    1.3241    0.3332 C.ar    1  UNL11      -0.0526
     17 C          -5.5128    1.2908    0.0238 C.ar    1  UNL11      -0.0611
     18 C          -6.0656    0.1896   -0.5781 C.ar    1  UNL11      -0.0617
     19 C          -5.2493   -0.8837   -0.8686 C.ar    1  UNL11      -0.0611
     20 C          -3.8985   -0.8248   -0.5477 C.ar    1  UNL11      -0.0526
     21 N          -0.9969   -0.3230   -0.3408 N.ar    1  UNL11      -0.1946
     22 C           3.5165   -1.0642   -1.5597 C.ar    1  UNL11       0.0108
     23 H           6.4029   -0.8235    0.1624 H       1  UNL11       0.0640
     24 H           4.7988   -0.5709    2.0043 H       1  UNL11       0.0619
     25 H           2.3823   -0.6323    1.5774 H       1  UNL11       0.0654
     26 H           0.2195    1.7539    2.6063 H       1  UNL11       0.0832
     27 H          -2.1642    1.6297    2.0558 H       1  UNL11       0.0654
     28 H          -3.7773    2.2181    0.8081 H       1  UNL11       0.0624
     29 H          -6.1729    2.1249    0.2439 H       1  UNL11       0.0618
     30 H          -7.1312    0.1918   -0.8100 H       1  UNL11       0.0618
     31 H          -5.6905   -1.7497   -1.3434 H       1  UNL11       0.0618
     32 H          -3.3194   -1.6999   -0.8036 H       1  UNL11       0.0624
     33 H           3.1967   -1.2051   -2.5784 H       1  UNL11       0.0677
     34 H           7.6182   -1.8375   -2.9436 H       1  UNL11       0.3292
@<TRIPOS>BOND
     1     1     2    2
     2     2     3    1
     3     2     4    1
     4     4     5   ar
     5     5     6   ar
     6     5    23    1
     7     6     7   ar
     8     6    24    1
     9     7     8   ar
    10     7    25    1
    11     8     9    1
    12     8    22   ar
    13     9    10    1
    14    10    11   ar
    15    11    12   ar
    16    12    13   ar
    17    12    26    1
    18    13    14   ar
    19    13    27    1
    20    14    15    1
    21    14    21   ar
    22    15    16   ar
    23    16    17   ar
    24    16    28    1
    25    17    18   ar
    26    17    29    1
    27    18    19   ar
    28    18    30    1
    29    19    20   ar
    30    19    31    1
    31    20    15   ar
    32    20    32    1
    33    21    10   ar
    34    22     4   ar
    35    22    33    1
    36     3    34    1
@<TRIPOS>MOLECULE
*****
 34 36 0 0 0
SMALL
GASTEIGER

@<TRIPOS>ATOM
      1 O           2.9702   -2.1010    3.7471 O.2     1  UNL11      -0.1300
      2 N           3.7218   -2.6698    2.9347 N.4     1  UNL11       0.0061
      3 O           4.5619   -3.6589    3.3821 O.2     1  UNL11      -0.3961
      4 C           3.6961   -2.2868    1.5671 C.ar    1  UNL11       0.1251
      5 C           4.8179   -2.3759    0.7799 C.ar    1  UNL11      -0.0314
      6 C           4.7624   -1.9946   -0.5522 C.ar    1  UNL11      -0.0561
      7 C           3.5554   -1.5184   -1.0883 C.ar    1  UNL11      -0.0191
      8 C           2.4348   -1.4283   -0.3055 C.ar    1  UNL11       0.1340
      9 O           1.2597   -0.9652   -0.8257 O.3     1  UNL11      -0.4235
     10 C           0.3049   -0.2805   -0.0737 C.ar    1  UNL11       0.3239
     11 N           0.7453    0.4547    0.9712 N.ar    1  UNL11      -0.2030
     12 C          -0.0835    1.1535    1.7622 C.ar    1  UNL11       0.0350
     13 C          -1.4489    1.0908    1.4581 C.ar    1  UNL11      -0.0173
     14 C          -1.9113    0.3472    0.3985 C.ar    1  UNL11       0.0778
     15 C          -3.3206    0.2574    0.0513 C.ar    1  UNL11       0.0006
     16 C          -3.6870    0.0716   -1.2746 C.ar    1  UNL11      -0.0526
     17 C          -5.0145   -0.0206   -1.6598 C.ar    1  UNL11      -0.0611
     18 C          -6.0200    0.0699   -0.7319 C.ar    1  UNL11      -0.0617
     19 C          -5.6818    0.2547    0.5925 C.ar    1  UNL11      -0.0611
     20 C          -4.3426    0.3439    0.9524 C.ar    1  UNL11      -0.0526
     21 N          -0.9969   -0.3230   -0.3408 N.ar    1  UNL11      -0.1946
     22 C           2.5140   -1.8104    1.0057 C.ar    1  UNL11       0.0108
     23 H           5.7439   -2.7477    1.2147 H       1  UNL11       0.0640
     24 H           5.6591   -2.0756   -1.1455 H       1  UNL11       0.0619
     25 H           3.5750   -1.2361   -2.1341 H       1  UNL11       0.0654
     26 H           0.2195    1.7539    2.6063 H       1  UNL11       0.0832
     27 H          -2.1642    1.6297    2.0558 H       1  UNL11       0.0654
     28 H          -2.9320   -0.0064   -2.0475 H       1  UNL11       0.0624
     29 H          -5.3024   -0.1660   -2.6970 H       1  UNL11       0.0618
     30 H          -7.0559   -0.0062   -1.0644 H       1  UNL11       0.0618
     31 H          -6.4790    0.3254    1.3203 H       1  UNL11       0.0618
     32 H          -4.1509    0.4883    2.0055 H       1  UNL11       0.0624
     33 H           1.6502   -1.7514    1.6463 H       1  UNL11       0.0677
     34 H           4.5642   -3.8974    4.2882 H       1  UNL11       0.3292
@<TRIPOS>BOND
     1     1     2    2
     2     2     3    1
     3     2     4    1
     4     4     5   ar
     5     5     6   ar
     6     5    23    1
     7     6     7   ar
     8     6    24    1
     9     7     8   ar
    10     7    25    1
    11     8     9    1
    12     8    22   ar
    13     9    10    1
    14    10    11   ar
    15    11    12   ar
    16    12    13   ar
    17    12    26    1
    18    13    14   ar
    19    13    27    1
    20    14    15    1
    21    14    21   ar
    22    15    16   ar
    23    16    17   ar
    24    16    28    1
    25    17    18   ar
    26    17    29    1
    27    18    19   ar
    28    18    30    1
    29    19    20   ar
    30    19    31    1
    31    20    15   ar
    32    20    32    1
    33    21    10   ar
    34    22     4   ar
    35    22    33    1
    36     3    34    1
@<TRIPOS>MOLECULE
*****
 34 36 0 0 0
SMALL
GASTEIGER

@<TRIPOS>ATOM
      1 O           4.9645   -1.7934   -4.0991 O.2     1  UNL11      -0.1300
      2 N           5.2414   -0.7334   -3.5091 N.4     1  UNL11       0.0061
      3 O           6.2043    0.0915   -4.0352 O.2     1  UNL11      -0.3961
      4 C           4.5594   -0.3989   -2.3089 C.ar    1  UNL11       0.1251
      5 C           5.1679    0.3409   -1.3247 C.ar    1  UNL11      -0.0314
      6 C           4.4768    0.6520   -0.1634 C.ar    1  UNL11      -0.0561
      7 C           3.1551    0.2068   -0.0017 C.ar    1  UNL11      -0.0191
      8 C           2.5455   -0.5313   -0.9816 C.ar    1  UNL11       0.1340
      9 O           1.2597   -0.9652   -0.8257 O.3     1  UNL11      -0.4235
     10 C           0.3049   -0.2805   -0.0737 C.ar    1  UNL11       0.3239
     11 N           0.7453    0.4547    0.9712 N.ar    1  UNL11      -0.2030
     12 C          -0.0835    1.1535    1.7622 C.ar    1  UNL11       0.0350
     13 C          -1.4489    1.0908    1.4581 C.ar    1  UNL11      -0.0173
     14 C          -1.9113    0.3472    0.3985 C.ar    1  UNL11       0.0778
     15 C          -3.3206    0.2574    0.0513 C.ar    1  UNL11       0.0006
     16 C          -4.2787    0.3736    1.0490 C.ar    1  UNL11      -0.0526
     17 C          -5.6340    0.2955    0.7732 C.ar    1  UNL11      -0.0611
     18 C          -6.0766    0.0987   -0.5097 C.ar    1  UNL11      -0.0617
     19 C          -5.1440   -0.0199   -1.5191 C.ar    1  UNL11      -0.0611
     20 C          -3.7905    0.0620   -1.2156 C.ar    1  UNL11      -0.0526
     21 N          -0.9969   -0.3230   -0.3408 N.ar    1  UNL11      -0.1946
     22 C           3.2475   -0.8257   -2.1184 C.ar    1  UNL11       0.0108
     23 H           6.1932    0.6765   -1.4696 H       1  UNL11       0.0640
     24 H           4.9805    1.2342    0.5915 H       1  UNL11       0.0619
     25 H           2.6681    0.4815    0.9262 H       1  UNL11       0.0654
     26 H           0.2195    1.7539    2.6063 H       1  UNL11       0.0832
     27 H          -2.1642    1.6297    2.0558 H       1  UNL11       0.0654
     28 H          -3.9829    0.5300    2.0793 H       1  UNL11       0.0624
     29 H          -6.3846    0.3863    1.5530 H       1  UNL11       0.0618
     30 H          -7.1495    0.0414   -0.6968 H       1  UNL11       0.0618
     31 H          -5.4987   -0.1751   -2.5292 H       1  UNL11       0.0618
     32 H          -3.1171   -0.0393   -2.0540 H       1  UNL11       0.0624
     33 H           2.7956   -1.4040   -2.9066 H       1  UNL11       0.0677
     34 H           6.6430   -0.1467   -4.8281 H       1  UNL11       0.3292
@<TRIPOS>BOND
     1     1     2    2
     2     2     3    1
     3     2     4    1
     4     4     5   ar
     5     5     6   ar
     6     5    23    1
     7     6     7   ar
     8     6    24    1
     9     7     8   ar
    10     7    25    1
    11     8     9    1
    12     8    22   ar
    13     9    10    1
    14    10    11   ar
    15    11    12   ar
    16    12    13   ar
    17    12    26    1
    18    13    14   ar
    19    13    27    1
    20    14    15    1
    21    14    21   ar
    22    15    16   ar
    23    16    17   ar
    24    16    28    1
    25    17    18   ar
    26    17    29    1
    27    18    19   ar
    28    18    30    1
    29    19    20   ar
    30    19    31    1
    31    20    15   ar
    32    20    32    1
    33    21    10   ar
    34    22     4   ar
    35    22    33    1
    36     3    34    1
@<TRIPOS>MOLECULE
*****
 34 36 0 0 0
SMALL
GASTEIGER

@<TRIPOS>ATOM
      1 O           5.6326   -3.0581   -2.0972 O.2     1  UNL11      -0.1300
      2 N           5.9045   -1.9863   -1.5267 N.4     1  UNL11       0.0061
      3 O           7.1892   -1.7666   -1.0960 O.2     1  UNL11      -0.3961
      4 C           4.8857   -1.0155   -1.3332 C.ar    1  UNL11       0.1251
      5 C           5.1754    0.3266   -1.3021 C.ar    1  UNL11      -0.0314
      6 C           4.1597    1.2511   -1.1115 C.ar    1  UNL11      -0.0561
      7 C           2.8376    0.8067   -0.9511 C.ar    1  UNL11      -0.0191
      8 C           2.5455   -0.5313   -0.9816 C.ar    1  UNL11       0.1340
      9 O           1.2597   -0.9652   -0.8257 O.3     1  UNL11      -0.4235
     10 C           0.3049   -0.2805   -0.0737 C.ar    1  UNL11       0.3239
     11 N           0.7453    0.4547    0.9712 N.ar    1  UNL11      -0.2030
     12 C          -0.0835    1.1535    1.7622 C.ar    1  UNL11       0.0350
     13 C          -1.4489    1.0908    1.4581 C.ar    1  UNL11      -0.0173
     14 C          -1.9113    0.3472    0.3985 C.ar    1  UNL11       0.0778
     15 C          -3.3206    0.2574    0.0513 C.ar    1  UNL11       0.0006
     16 C          -3.7100   -0.5256   -1.0266 C.ar    1  UNL11      -0.0526
     17 C          -5.0386   -0.6459   -1.4003 C.ar    1  UNL11      -0.0611
     18 C          -6.0222    0.0128   -0.7082 C.ar    1  UNL11      -0.0617
     19 C          -5.6608    0.7974    0.3672 C.ar    1  UNL11      -0.0611
     20 C          -4.3211    0.9011    0.7211 C.ar    1  UNL11      -0.0526
     21 N          -0.9969   -0.3230   -0.3408 N.ar    1  UNL11      -0.1946
     22 C           3.5644   -1.4245   -1.1710 C.ar    1  UNL11       0.0108
     23 H           6.2069    0.6505   -1.4285 H       1  UNL11       0.0640
     24 H           4.4175    2.2979   -1.0916 H       1  UNL11       0.0619
     25 H           2.0888    1.5761   -0.8059 H       1  UNL11       0.0654
     26 H           0.2195    1.7539    2.6063 H       1  UNL11       0.0832
     27 H          -2.1642    1.6297    2.0558 H       1  UNL11       0.0654
     28 H          -2.9729   -1.0671   -1.6072 H       1  UNL11       0.0624
     29 H          -5.3445   -1.2584   -2.2435 H       1  UNL11       0.0618
     30 H          -7.0595   -0.1007   -1.0252 H       1  UNL11       0.0618
     31 H          -6.4409    1.3148    0.9095 H       1  UNL11       0.0618
     32 H          -4.1106    1.5317    1.5724 H       1  UNL11       0.0624
     33 H           3.3665   -2.4827   -1.1999 H       1  UNL11       0.0677
     34 H           7.8474   -2.4193   -1.2329 H       1  UNL11       0.3292
@<TRIPOS>BOND
     1     1     2    2
     2     2     3    1
     3     2     4    1
     4     4     5   ar
     5     5     6   ar
     6     5    23    1
     7     6     7   ar
     8     6    24    1
     9     7     8   ar
    10     7    25    1
    11     8     9    1
    12     8    22   ar
    13     9    10    1
    14    10    11   ar
    15    11    12   ar
    16    12    13   ar
    17    12    26    1
    18    13    14   ar
    19    13    27    1
    20    14    15    1
    21    14    21   ar
    22    15    16   ar
    23    16    17   ar
    24    16    28    1
    25    17    18   ar
    26    17    29    1
    27    18    19   ar
    28    18    30    1
    29    19    20   ar
    30    19    31    1
    31    20    15   ar
    32    20    32    1
    33    21    10   ar
    34    22     4   ar
    35    22    33    1
    36     3    34    1
@<TRIPOS>MOLECULE
*****
 34 36 0 0 0
SMALL
GASTEIGER

@<TRIPOS>ATOM
      1 O           5.0461   -4.2485   -0.9207 O.2     1  UNL11      -0.1300
      2 N           5.5580   -3.1146   -0.9393 N.4     1  UNL11       0.0061
      3 O           6.8788   -2.9841   -1.2896 O.2     1  UNL11      -0.3961
      4 C           4.7699   -1.9827   -0.5997 C.ar    1  UNL11       0.1251
      5 C           5.3293   -0.8734   -0.0142 C.ar    1  UNL11      -0.0314
      6 C           4.5346    0.2169    0.3062 C.ar    1  UNL11      -0.0561
      7 C           3.1589    0.1786    0.0287 C.ar    1  UNL11      -0.0191
      8 C           2.5980   -0.9265   -0.5551 C.ar    1  UNL11       0.1340
      9 O           1.2597   -0.9652   -0.8257 O.3     1  UNL11      -0.4235
     10 C           0.3049   -0.2805   -0.0737 C.ar    1  UNL11       0.3239
     11 N           0.7453    0.4547    0.9712 N.ar    1  UNL11      -0.2030
     12 C          -0.0835    1.1535    1.7622 C.ar    1  UNL11       0.0350
     13 C          -1.4489    1.0908    1.4581 C.ar    1  UNL11      -0.0173
     14 C          -1.9113    0.3472    0.3985 C.ar    1  UNL11       0.0778
     15 C          -3.3206    0.2574    0.0513 C.ar    1  UNL11       0.0006
     16 C          -3.6870    0.0716   -1.2746 C.ar    1  UNL11      -0.0526
     17 C          -5.0145   -0.0206   -1.6598 C.ar    1  UNL11      -0.0611
     18 C          -6.0200    0.0699   -0.7319 C.ar    1  UNL11      -0.0617
     19 C          -5.6818    0.2547    0.5925 C.ar    1  UNL11      -0.0611
     20 C          -4.3426    0.3439    0.9524 C.ar    1  UNL11      -0.0526
     21 N          -0.9969   -0.3230   -0.3408 N.ar    1  UNL11      -0.1946
     22 C           3.4023   -1.9898   -0.8621 C.ar    1  UNL11       0.0108
     23 H           6.3979   -0.8637    0.1927 H       1  UNL11       0.0640
     24 H           5.0018    1.0735    0.7650 H       1  UNL11       0.0619
     25 H           2.5912    1.0600    0.3019 H       1  UNL11       0.0654
     26 H           0.2195    1.7539    2.6063 H       1  UNL11       0.0832
     27 H          -2.1642    1.6297    2.0558 H       1  UNL11       0.0654
     28 H          -2.9320   -0.0064   -2.0475 H       1  UNL11       0.0624
     29 H          -5.3024   -0.1660   -2.6970 H       1  UNL11       0.0618
     30 H          -7.0559   -0.0062   -1.0644 H       1  UNL11       0.0618
     31 H          -6.4790    0.3254    1.3203 H       1  UNL11       0.0618
     32 H          -4.1509    0.4883    2.0055 H       1  UNL11       0.0624
     33 H           2.9909   -2.8726   -1.3217 H       1  UNL11       0.0677
     34 H           7.3821   -3.7430   -1.5104 H       1  UNL11       0.3292
@<TRIPOS>BOND
     1     1     2    2
     2     2     3    1
     3     2     4    1
     4     4     5   ar
     5     5     6   ar
     6     5    23    1
     7     6     7   ar
     8     6    24    1
     9     7     8   ar
    10     7    25    1
    11     8     9    1
    12     8    22   ar
    13     9    10    1
    14    10    11   ar
    15    11    12   ar
    16    12    13   ar
    17    12    26    1
    18    13    14   ar
    19    13    27    1
    20    14    15    1
    21    14    21   ar
    22    15    16   ar
    23    16    17   ar
    24    16    28    1
    25    17    18   ar
    26    17    29    1
    27    18    19   ar
    28    18    30    1
    29    19    20   ar
    30    19    31    1
    31    20    15   ar
    32    20    32    1
    33    21    10   ar
    34    22     4   ar
    35    22    33    1
    36     3    34    1
@<TRIPOS>MOLECULE
*****
 34 36 0 0 0
SMALL
GASTEIGER

@<TRIPOS>ATOM
      1 O           5.5130   -1.1194    3.2060 O.2     1  UNL11      -0.1300
      2 N           4.8237   -0.5105    2.3680 N.4     1  UNL11       0.0061
      3 O           4.6446    0.8433    2.5078 O.2     1  UNL11      -0.3961
      4 C           4.2384   -1.2241    1.2882 C.ar    1  UNL11       0.1251
      5 C           4.8304   -2.3513    0.7735 C.ar    1  UNL11      -0.0314
      6 C           4.2355   -3.0272   -0.2811 C.ar    1  UNL11      -0.0561
      7 C           3.0277   -2.5524   -0.8168 C.ar    1  UNL11      -0.0191
      8 C           2.4348   -1.4283   -0.3055 C.ar    1  UNL11       0.1340
      9 O           1.2597   -0.9652   -0.8257 O.3     1  UNL11      -0.4235
     10 C           0.3049   -0.2805   -0.0737 C.ar    1  UNL11       0.3239
     11 N           0.7453    0.4547    0.9712 N.ar    1  UNL11      -0.2030
     12 C          -0.0835    1.1535    1.7622 C.ar    1  UNL11       0.0350
     13 C          -1.4489    1.0908    1.4581 C.ar    1  UNL11      -0.0173
     14 C          -1.9113    0.3472    0.3985 C.ar    1  UNL11       0.0778
     15 C          -3.3206    0.2574    0.0513 C.ar    1  UNL11       0.0006
     16 C          -3.8052   -0.8994   -0.5434 C.ar    1  UNL11      -0.0526
     17 C          -5.1383   -1.0373   -0.8943 C.ar    1  UNL11      -0.0611
     18 C          -6.0313   -0.0230   -0.6620 C.ar    1  UNL11      -0.0617
     19 C          -5.5743    1.1370   -0.0720 C.ar    1  UNL11      -0.0611
     20 C          -4.2322    1.2499    0.2702 C.ar    1  UNL11      -0.0526
     21 N          -0.9969   -0.3230   -0.3408 N.ar    1  UNL11      -0.1946
     22 C           3.0406   -0.7785    0.7349 C.ar    1  UNL11       0.0108
     23 H           5.7667   -2.7029    1.2030 H       1  UNL11       0.0640
     24 H           4.7235   -3.9089   -0.6643 H       1  UNL11       0.0619
     25 H           2.6122   -3.1228   -1.6388 H       1  UNL11       0.0654
     26 H           0.2195    1.7539    2.6063 H       1  UNL11       0.0832
     27 H          -2.1642    1.6297    2.0558 H       1  UNL11       0.0654
     28 H          -3.1421   -1.7310   -0.7489 H       1  UNL11       0.0624
     29 H          -5.5187   -1.9421   -1.3597 H       1  UNL11       0.0618
     30 H          -7.0746   -0.1599   -0.9488 H       1  UNL11       0.0618
     31 H          -6.2831    1.9340    0.1089 H       1  UNL11       0.0618
     32 H          -3.9443    2.1848    0.7281 H       1  UNL11       0.0624
     33 H           2.5989    0.1077    1.1585 H       1  UNL11       0.0677
     34 H           5.0390    1.2962    3.2271 H       1  UNL11       0.3292
@<TRIPOS>BOND
     1     1     2    2
     2     2     3    1
     3     2     4    1
     4     4     5   ar
     5     5     6   ar
     6     5    23    1
     7     6     7   ar
     8     6    24    1
     9     7     8   ar
    10     7    25    1
    11     8     9    1
    12     8    22   ar
    13     9    10    1
    14    10    11   ar
    15    11    12   ar
    16    12    13   ar
    17    12    26    1
    18    13    14   ar
    19    13    27    1
    20    14    15    1
    21    14    21   ar
    22    15    16   ar
    23    16    17   ar
    24    16    28    1
    25    17    18   ar
    26    17    29    1
    27    18    19   ar
    28    18    30    1
    29    19    20   ar
    30    19    31    1
    31    20    15   ar
    32    20    32    1
    33    21    10   ar
    34    22     4   ar
    35    22    33    1
    36     3    34    1
@<TRIPOS>MOLECULE
*****
 34 36 0 0 0
SMALL
GASTEIGER

@<TRIPOS>ATOM
      1 O           6.9135   -1.6945   -2.1939 O.2     1  UNL11      -0.1300
      2 N           5.9045   -1.9863   -1.5267 N.4     1  UNL11       0.0061
      3 O           5.7998   -3.2457   -0.9909 O.2     1  UNL11      -0.3961
      4 C           4.8857   -1.0155   -1.3332 C.ar    1  UNL11       0.1251
      5 C           5.1754    0.3266   -1.3021 C.ar    1  UNL11      -0.0314
      6 C           4.1597    1.2511   -1.1115 C.ar    1  UNL11      -0.0561
      7 C           2.8376    0.8067   -0.9511 C.ar    1  UNL11      -0.0191
      8 C           2.5455   -0.5313   -0.9816 C.ar    1  UNL11       0.1340
      9 O           1.2597   -0.9652   -0.8257 O.3     1  UNL11      -0.4235
     10 C           0.3049   -0.2805   -0.0737 C.ar    1  UNL11       0.3239
     11 N           0.7453    0.4547    0.9712 N.ar    1  UNL11      -0.2030
     12 C          -0.0835    1.1535    1.7622 C.ar    1  UNL11       0.0350
     13 C          -1.4489    1.0908    1.4581 C.ar    1  UNL11      -0.0173
     14 C          -1.9113    0.3472    0.3985 C.ar    1  UNL11       0.0778
     15 C          -3.3206    0.2574    0.0513 C.ar    1  UNL11       0.0006
     16 C          -3.8052   -0.8994   -0.5434 C.ar    1  UNL11      -0.0526
     17 C          -5.1383   -1.0373   -0.8943 C.ar    1  UNL11      -0.0611
     18 C          -6.0313   -0.0230   -0.6620 C.ar    1  UNL11      -0.0617
     19 C          -5.5743    1.1370   -0.0720 C.ar    1  UNL11      -0.0611
     20 C          -4.2322    1.2499    0.2702 C.ar    1  UNL11      -0.0526
     21 N          -0.9969   -0.3230   -0.3408 N.ar    1  UNL11      -0.1946
     22 C           3.5644   -1.4245   -1.1710 C.ar    1  UNL11       0.0108
     23 H           6.2069    0.6505   -1.4285 H       1  UNL11       0.0640
     24 H           4.4175    2.2979   -1.0916 H       1  UNL11       0.0619
     25 H           2.0888    1.5761   -0.8059 H       1  UNL11       0.0654
     26 H           0.2195    1.7539    2.6063 H       1  UNL11       0.0832
     27 H          -2.1642    1.6297    2.0558 H       1  UNL11       0.0654
     28 H          -3.1421   -1.7310   -0.7489 H       1  UNL11       0.0624
     29 H          -5.5187   -1.9421   -1.3597 H       1  UNL11       0.0618
     30 H          -7.0746   -0.1599   -0.9488 H       1  UNL11       0.0618
     31 H          -6.2831    1.9340    0.1089 H       1  UNL11       0.0618
     32 H          -3.9443    2.1848    0.7281 H       1  UNL11       0.0624
     33 H           3.3665   -2.4827   -1.1999 H       1  UNL11       0.0677
     34 H           6.4826   -3.8722   -1.1298 H       1  UNL11       0.3292
@<TRIPOS>BOND
     1     1     2    2
     2     2     3    1
     3     2     4    1
     4     4     5   ar
     5     5     6   ar
     6     5    23    1
     7     6     7   ar
     8     6    24    1
     9     7     8   ar
    10     7    25    1
    11     8     9    1
    12     8    22   ar
    13     9    10    1
    14    10    11   ar
    15    11    12   ar
    16    12    13   ar
    17    12    26    1
    18    13    14   ar
    19    13    27    1
    20    14    15    1
    21    14    21   ar
    22    15    16   ar
    23    16    17   ar
    24    16    28    1
    25    17    18   ar
    26    17    29    1
    27    18    19   ar
    28    18    30    1
    29    19    20   ar
    30    19    31    1
    31    20    15   ar
    32    20    32    1
    33    21    10   ar
    34    22     4   ar
    35    22    33    1
    36     3    34    1
@<TRIPOS>MOLECULE
*****
 34 36 0 0 0
SMALL
GASTEIGER

@<TRIPOS>ATOM
      1 O           6.1858   -4.1400   -0.9996 O.2     1  UNL11      -0.1300
      2 N           5.4343   -3.2623   -1.4614 N.4     1  UNL11       0.0061
      3 O           5.4889   -2.9748   -2.8025 O.2     1  UNL11      -0.3961
      4 C           4.5389   -2.5783   -0.5964 C.ar    1  UNL11       0.1251
      5 C           4.8374   -2.3826    0.7297 C.ar    1  UNL11      -0.0314
      6 C           3.9435   -1.7111    1.5501 C.ar    1  UNL11      -0.0561
      7 C           2.7353   -1.2345    1.0169 C.ar    1  UNL11      -0.0191
      8 C           2.4348   -1.4283   -0.3055 C.ar    1  UNL11       0.1340
      9 O           1.2597   -0.9652   -0.8257 O.3     1  UNL11      -0.4235
     10 C           0.3049   -0.2805   -0.0737 C.ar    1  UNL11       0.3239
     11 N           0.7453    0.4547    0.9712 N.ar    1  UNL11      -0.2030
     12 C          -0.0835    1.1535    1.7622 C.ar    1  UNL11       0.0350
     13 C          -1.4489    1.0908    1.4581 C.ar    1  UNL11      -0.0173
     14 C          -1.9113    0.3472    0.3985 C.ar    1  UNL11       0.0778
     15 C          -3.3206    0.2574    0.0513 C.ar    1  UNL11       0.0006
     16 C          -3.8052   -0.8994   -0.5434 C.ar    1  UNL11      -0.0526
     17 C          -5.1383   -1.0373   -0.8943 C.ar    1  UNL11      -0.0611
     18 C          -6.0313   -0.0230   -0.6620 C.ar    1  UNL11      -0.0617
     19 C          -5.5743    1.1370   -0.0720 C.ar    1  UNL11      -0.0611
     20 C          -4.2322    1.2499    0.2702 C.ar    1  UNL11      -0.0526
     21 N          -0.9969   -0.3230   -0.3408 N.ar    1  UNL11      -0.1946
     22 C           3.3324   -2.0936   -1.0951 C.ar    1  UNL11       0.0108
     23 H           5.7794   -2.7599    1.1236 H       1  UNL11       0.0640
     24 H           4.2051   -1.5725    2.5868 H       1  UNL11       0.0619
     25 H           2.0787   -0.7184    1.7069 H       1  UNL11       0.0654
     26 H           0.2195    1.7539    2.6063 H       1  UNL11       0.0832
     27 H          -2.1642    1.6297    2.0558 H       1  UNL11       0.0654
     28 H          -3.1421   -1.7310   -0.7489 H       1  UNL11       0.0624
     29 H          -5.5187   -1.9421   -1.3597 H       1  UNL11       0.0618
     30 H          -7.0746   -0.1599   -0.9488 H       1  UNL11       0.0618
     31 H          -6.2831    1.9340    0.1089 H       1  UNL11       0.0618
     32 H          -3.9443    2.1848    0.7281 H       1  UNL11       0.0624
     33 H           3.1247   -2.2613   -2.1384 H       1  UNL11       0.0677
     34 H           6.0865   -3.4370   -3.3568 H       1  UNL11       0.3292
@<TRIPOS>BOND
     1     1     2    2
     2     2     3    1
     3     2     4    1
     4     4     5   ar
     5     5     6   ar
     6     5    23    1
     7     6     7   ar
     8     6    24    1
     9     7     8   ar
    10     7    25    1
    11     8     9    1
    12     8    22   ar
    13     9    10    1
    14    10    11   ar
    15    11    12   ar
    16    12    13   ar
    17    12    26    1
    18    13    14   ar
    19    13    27    1
    20    14    15    1
    21    14    21   ar
    22    15    16   ar
    23    16    17   ar
    24    16    28    1
    25    17    18   ar
    26    17    29    1
    27    18    19   ar
    28    18    30    1
    29    19    20   ar
    30    19    31    1
    31    20    15   ar
    32    20    32    1
    33    21    10   ar
    34    22     4   ar
    35    22    33    1
    36     3    34    1
@<TRIPOS>MOLECULE
*****
 34 36 0 0 0
SMALL
GASTEIGER

@<TRIPOS>ATOM
      1 O          -1.8175   -5.8625   -1.7828 O.2     1  UNL11      -0.1300
      2 N          -1.1598   -5.1136   -1.0379 N.4     1  UNL11       0.0061
      3 O          -1.3832   -5.1548    0.3158 O.2     1  UNL11      -0.3961
      4 C          -0.1954   -4.2350   -1.5998 C.ar    1  UNL11       0.1251
      5 C           0.4701   -4.5527   -2.7584 C.ar    1  UNL11      -0.0314
      6 C           1.4065   -3.6748   -3.2833 C.ar    1  UNL11      -0.0561
      7 C           1.6683   -2.4632   -2.6241 C.ar    1  UNL11      -0.0191
      8 C           1.0061   -2.1436   -1.4682 C.ar    1  UNL11       0.1340
      9 O           1.2597   -0.9652   -0.8257 O.3     1  UNL11      -0.4235
     10 C           0.3049   -0.2805   -0.0737 C.ar    1  UNL11       0.3239
     11 N           0.7453    0.4547    0.9712 N.ar    1  UNL11      -0.2030
     12 C          -0.0835    1.1535    1.7622 C.ar    1  UNL11       0.0350
     13 C          -1.4489    1.0908    1.4581 C.ar    1  UNL11      -0.0173
     14 C          -1.9113    0.3472    0.3985 C.ar    1  UNL11       0.0778
     15 C          -3.3206    0.2574    0.0513 C.ar    1  UNL11       0.0006
     16 C          -3.6870    0.0716   -1.2746 C.ar    1  UNL11      -0.0526
     17 C          -5.0145   -0.0206   -1.6598 C.ar    1  UNL11      -0.0611
     18 C          -6.0200    0.0699   -0.7319 C.ar    1  UNL11      -0.0617
     19 C          -5.6818    0.2547    0.5925 C.ar    1  UNL11      -0.0611
     20 C          -4.3426    0.3439    0.9524 C.ar    1  UNL11      -0.0526
     21 N          -0.9969   -0.3230   -0.3408 N.ar    1  UNL11      -0.1946
     22 C           0.0867   -3.0256   -0.9696 C.ar    1  UNL11       0.0108
     23 H           0.2526   -5.4970   -3.2541 H       1  UNL11       0.0640
     24 H           1.9131   -3.9514   -4.1940 H       1  UNL11       0.0619
     25 H           2.4096   -1.8198   -3.0825 H       1  UNL11       0.0654
     26 H           0.2195    1.7539    2.6063 H       1  UNL11       0.0832
     27 H          -2.1642    1.6297    2.0558 H       1  UNL11       0.0654
     28 H          -2.9320   -0.0064   -2.0475 H       1  UNL11       0.0624
     29 H          -5.3024   -0.1660   -2.6970 H       1  UNL11       0.0618
     30 H          -7.0559   -0.0062   -1.0644 H       1  UNL11       0.0618
     31 H          -6.4790    0.3254    1.3203 H       1  UNL11       0.0618
     32 H          -4.1509    0.4883    2.0055 H       1  UNL11       0.0624
     33 H          -0.4502   -2.8026   -0.0630 H       1  UNL11       0.0677
     34 H          -2.0238   -5.7413    0.6673 H       1  UNL11       0.3292
@<TRIPOS>BOND
     1     1     2    2
     2     2     3    1
     3     2     4    1
     4     4     5   ar
     5     5     6   ar
     6     5    23    1
     7     6     7   ar
     8     6    24    1
     9     7     8   ar
    10     7    25    1
    11     8     9    1
    12     8    22   ar
    13     9    10    1
    14    10    11   ar
    15    11    12   ar
    16    12    13   ar
    17    12    26    1
    18    13    14   ar
    19    13    27    1
    20    14    15    1
    21    14    21   ar
    22    15    16   ar
    23    16    17   ar
    24    16    28    1
    25    17    18   ar
    26    17    29    1
    27    18    19   ar
    28    18    30    1
    29    19    20   ar
    30    19    31    1
    31    20    15   ar
    32    20    32    1
    33    21    10   ar
    34    22     4   ar
    35    22    33    1
    36     3    34    1
@<TRIPOS>MOLECULE
*****
 34 36 0 0 0
SMALL
GASTEIGER

@<TRIPOS>ATOM
      1 O          -2.8132   -3.7033   -1.8422 O.2     1  UNL11      -0.1300
      2 N          -1.8351   -4.4626   -1.9654 N.4     1  UNL11       0.0061
      3 O          -2.0441   -5.8185   -2.0107 O.2     1  UNL11      -0.3961
      4 C          -0.5278   -3.9146   -2.0562 C.ar    1  UNL11       0.1251
      5 C           0.4624   -4.5452   -2.7690 C.ar    1  UNL11      -0.0314
      6 C           1.7295   -3.9862   -2.8398 C.ar    1  UNL11      -0.0561
      7 C           1.9917   -2.7750   -2.1800 C.ar    1  UNL11      -0.0191
      8 C           1.0061   -2.1436   -1.4682 C.ar    1  UNL11       0.1340
      9 O           1.2597   -0.9652   -0.8257 O.3     1  UNL11      -0.4235
     10 C           0.3049   -0.2805   -0.0737 C.ar    1  UNL11       0.3239
     11 N           0.7453    0.4547    0.9712 N.ar    1  UNL11      -0.2030
     12 C          -0.0835    1.1535    1.7622 C.ar    1  UNL11       0.0350
     13 C          -1.4489    1.0908    1.4581 C.ar    1  UNL11      -0.0173
     14 C          -1.9113    0.3472    0.3985 C.ar    1  UNL11       0.0778
     15 C          -3.3206    0.2574    0.0513 C.ar    1  UNL11       0.0006
     16 C          -3.8052   -0.8994   -0.5434 C.ar    1  UNL11      -0.0526
     17 C          -5.1383   -1.0373   -0.8943 C.ar    1  UNL11      -0.0611
     18 C          -6.0313   -0.0230   -0.6620 C.ar    1  UNL11      -0.0617
     19 C          -5.5743    1.1370   -0.0720 C.ar    1  UNL11      -0.0611
     20 C          -4.2322    1.2499    0.2702 C.ar    1  UNL11      -0.0526
     21 N          -0.9969   -0.3230   -0.3408 N.ar    1  UNL11      -0.1946
     22 C          -0.2360   -2.7145   -1.4128 C.ar    1  UNL11       0.0108
     23 H           0.2386   -5.4835   -3.2734 H       1  UNL11       0.0640
     24 H           2.4864   -4.5041   -3.4066 H       1  UNL11       0.0619
     25 H           2.9996   -2.3886   -2.2722 H       1  UNL11       0.0654
     26 H           0.2195    1.7539    2.6063 H       1  UNL11       0.0832
     27 H          -2.1642    1.6297    2.0558 H       1  UNL11       0.0654
     28 H          -3.1421   -1.7310   -0.7489 H       1  UNL11       0.0624
     29 H          -5.5187   -1.9421   -1.3597 H       1  UNL11       0.0618
     30 H          -7.0746   -0.1599   -0.9488 H       1  UNL11       0.0618
     31 H          -6.2831    1.9340    0.1089 H       1  UNL11       0.0618
     32 H          -3.9443    2.1848    0.7281 H       1  UNL11       0.0624
     33 H          -1.0315   -2.2421   -0.8614 H       1  UNL11       0.0677
     34 H          -2.9142   -6.1607   -1.9492 H       1  UNL11       0.3292
@<TRIPOS>BOND
     1     1     2    2
     2     2     3    1
     3     2     4    1
     4     4     5   ar
     5     5     6   ar
     6     5    23    1
     7     6     7   ar
     8     6    24    1
     9     7     8   ar
    10     7    25    1
    11     8     9    1
    12     8    22   ar
    13     9    10    1
    14    10    11   ar
    15    11    12   ar
    16    12    13   ar
    17    12    26    1
    18    13    14   ar
    19    13    27    1
    20    14    15    1
    21    14    21   ar
    22    15    16   ar
    23    16    17   ar
    24    16    28    1
    25    17    18   ar
    26    17    29    1
    27    18    19   ar
    28    18    30    1
    29    19    20   ar
    30    19    31    1
    31    20    15   ar
    32    20    32    1
    33    21    10   ar
    34    22     4   ar
    35    22    33    1
    36     3    34    1
@<TRIPOS>MOLECULE
*****
 34 36 0 0 0
SMALL
GASTEIGER

@<TRIPOS>ATOM
      1 O           6.5736   -3.3799   -0.2712 O.2     1  UNL11      -0.1300
      2 N           5.5580   -3.1146   -0.9393 N.4     1  UNL11       0.0061
      3 O           5.2219   -3.9264   -1.9940 O.2     1  UNL11      -0.3961
      4 C           4.7699   -1.9827   -0.5997 C.ar    1  UNL11       0.1251
      5 C           5.3293   -0.8734   -0.0142 C.ar    1  UNL11      -0.0314
      6 C           4.5346    0.2169    0.3062 C.ar    1  UNL11      -0.0561
      7 C           3.1589    0.1786    0.0287 C.ar    1  UNL11      -0.0191
      8 C           2.5980   -0.9265   -0.5551 C.ar    1  UNL11       0.1340
      9 O           1.2597   -0.9652   -0.8257 O.3     1  UNL11      -0.4235
     10 C           0.3049   -0.2805   -0.0737 C.ar    1  UNL11       0.3239
     11 N           0.7453    0.4547    0.9712 N.ar    1  UNL11      -0.2030
     12 C          -0.0835    1.1535    1.7622 C.ar    1  UNL11       0.0350
     13 C          -1.4489    1.0908    1.4581 C.ar    1  UNL11      -0.0173
     14 C          -1.9113    0.3472    0.3985 C.ar    1  UNL11       0.0778
     15 C          -3.3206    0.2574    0.0513 C.ar    1  UNL11       0.0006
     16 C          -3.8052   -0.8994   -0.5434 C.ar    1  UNL11      -0.0526
     17 C          -5.1383   -1.0373   -0.8943 C.ar    1  UNL11      -0.0611
     18 C          -6.0313   -0.0230   -0.6620 C.ar    1  UNL11      -0.0617
     19 C          -5.5743    1.1370   -0.0720 C.ar    1  UNL11      -0.0611
     20 C          -4.2322    1.2499    0.2702 C.ar    1  UNL11      -0.0526
     21 N          -0.9969   -0.3230   -0.3408 N.ar    1  UNL11      -0.1946
     22 C           3.4023   -1.9898   -0.8621 C.ar    1  UNL11       0.0108
     23 H           6.3979   -0.8637    0.1927 H       1  UNL11       0.0640
     24 H           5.0018    1.0735    0.7650 H       1  UNL11       0.0619
     25 H           2.5912    1.0600    0.3019 H       1  UNL11       0.0654
     26 H           0.2195    1.7539    2.6063 H       1  UNL11       0.0832
     27 H          -2.1642    1.6297    2.0558 H       1  UNL11       0.0654
     28 H          -3.1421   -1.7310   -0.7489 H       1  UNL11       0.0624
     29 H          -5.5187   -1.9421   -1.3597 H       1  UNL11       0.0618
     30 H          -7.0746   -0.1599   -0.9488 H       1  UNL11       0.0618
     31 H          -6.2831    1.9340    0.1089 H       1  UNL11       0.0618
     32 H          -3.9443    2.1848    0.7281 H       1  UNL11       0.0624
     33 H           2.9909   -2.8726   -1.3217 H       1  UNL11       0.0677
     34 H           5.7546   -4.6685   -2.2023 H       1  UNL11       0.3292
@<TRIPOS>BOND
     1     1     2    2
     2     2     3    1
     3     2     4    1
     4     4     5   ar
     5     5     6   ar
     6     5    23    1
     7     6     7   ar
     8     6    24    1
     9     7     8   ar
    10     7    25    1
    11     8     9    1
    12     8    22   ar
    13     9    10    1
    14    10    11   ar
    15    11    12   ar
    16    12    13   ar
    17    12    26    1
    18    13    14   ar
    19    13    27    1
    20    14    15    1
    21    14    21   ar
    22    15    16   ar
    23    16    17   ar
    24    16    28    1
    25    17    18   ar
    26    17    29    1
    27    18    19   ar
    28    18    30    1
    29    19    20   ar
    30    19    31    1
    31    20    15   ar
    32    20    32    1
    33    21    10   ar
    34    22     4   ar
    35    22    33    1
    36     3    34    1
@<TRIPOS>MOLECULE
*****
 34 36 0 0 0
SMALL
GASTEIGER

@<TRIPOS>ATOM
      1 O          -1.8175   -5.8625   -1.7828 O.2     1  UNL11      -0.1300
      2 N          -1.1598   -5.1136   -1.0379 N.4     1  UNL11       0.0061
      3 O          -1.3832   -5.1548    0.3158 O.2     1  UNL11      -0.3961
      4 C          -0.1954   -4.2350   -1.5998 C.ar    1  UNL11       0.1251
      5 C           0.4701   -4.5527   -2.7584 C.ar    1  UNL11      -0.0314
      6 C           1.4065   -3.6748   -3.2833 C.ar    1  UNL11      -0.0561
      7 C           1.6683   -2.4632   -2.6241 C.ar    1  UNL11      -0.0191
      8 C           1.0061   -2.1436   -1.4682 C.ar    1  UNL11       0.1340
      9 O           1.2597   -0.9652   -0.8257 O.3     1  UNL11      -0.4235
     10 C           0.3049   -0.2805   -0.0737 C.ar    1  UNL11       0.3239
     11 N           0.7453    0.4547    0.9712 N.ar    1  UNL11      -0.2030
     12 C          -0.0835    1.1535    1.7622 C.ar    1  UNL11       0.0350
     13 C          -1.4489    1.0908    1.4581 C.ar    1  UNL11      -0.0173
     14 C          -1.9113    0.3472    0.3985 C.ar    1  UNL11       0.0778
     15 C          -3.3206    0.2574    0.0513 C.ar    1  UNL11       0.0006
     16 C          -4.2787    0.3736    1.0490 C.ar    1  UNL11      -0.0526
     17 C          -5.6340    0.2955    0.7732 C.ar    1  UNL11      -0.0611
     18 C          -6.0766    0.0987   -0.5097 C.ar    1  UNL11      -0.0617
     19 C          -5.1440   -0.0199   -1.5191 C.ar    1  UNL11      -0.0611
     20 C          -3.7905    0.0620   -1.2156 C.ar    1  UNL11      -0.0526
     21 N          -0.9969   -0.3230   -0.3408 N.ar    1  UNL11      -0.1946
     22 C           0.0867   -3.0256   -0.9696 C.ar    1  UNL11       0.0108
     23 H           0.2526   -5.4970   -3.2541 H       1  UNL11       0.0640
     24 H           1.9131   -3.9514   -4.1940 H       1  UNL11       0.0619
     25 H           2.4096   -1.8198   -3.0825 H       1  UNL11       0.0654
     26 H           0.2195    1.7539    2.6063 H       1  UNL11       0.0832
     27 H          -2.1642    1.6297    2.0558 H       1  UNL11       0.0654
     28 H          -3.9829    0.5300    2.0793 H       1  UNL11       0.0624
     29 H          -6.3846    0.3863    1.5530 H       1  UNL11       0.0618
     30 H          -7.1495    0.0414   -0.6968 H       1  UNL11       0.0618
     31 H          -5.4987   -0.1751   -2.5292 H       1  UNL11       0.0618
     32 H          -3.1171   -0.0393   -2.0540 H       1  UNL11       0.0624
     33 H          -0.4502   -2.8026   -0.0630 H       1  UNL11       0.0677
     34 H          -2.0238   -5.7413    0.6673 H       1  UNL11       0.3292
@<TRIPOS>BOND
     1     1     2    2
     2     2     3    1
     3     2     4    1
     4     4     5   ar
     5     5     6   ar
     6     5    23    1
     7     6     7   ar
     8     6    24    1
     9     7     8   ar
    10     7    25    1
    11     8     9    1
    12     8    22   ar
    13     9    10    1
    14    10    11   ar
    15    11    12   ar
    16    12    13   ar
    17    12    26    1
    18    13    14   ar
    19    13    27    1
    20    14    15    1
    21    14    21   ar
    22    15    16   ar
    23    16    17   ar
    24    16    28    1
    25    17    18   ar
    26    17    29    1
    27    18    19   ar
    28    18    30    1
    29    19    20   ar
    30    19    31    1
    31    20    15   ar
    32    20    32    1
    33    21    10   ar
    34    22     4   ar
    35    22    33    1
    36     3    34    1
@<TRIPOS>MOLECULE
*****
 34 36 0 0 0
SMALL
GASTEIGER

@<TRIPOS>ATOM
      1 O           2.0733   -4.0645   -5.8061 O.2     1  UNL11      -0.1300
      2 N           2.1864   -3.8006   -4.5953 N.4     1  UNL11       0.0061
      3 O           2.9085   -4.6477   -3.7920 O.2     1  UNL11      -0.3961
      4 C           1.5693   -2.6338   -4.0704 C.ar    1  UNL11       0.1251
      5 C           0.8481   -1.7850   -4.8738 C.ar    1  UNL11      -0.0314
      6 C           0.2568   -0.6533   -4.3329 C.ar    1  UNL11      -0.0561
      7 C           0.4003   -0.3825   -2.9628 C.ar    1  UNL11      -0.0191
      8 C           1.1192   -1.2273   -2.1589 C.ar    1  UNL11       0.1340
      9 O           1.2597   -0.9652   -0.8257 O.3     1  UNL11      -0.4235
     10 C           0.3049   -0.2805   -0.0737 C.ar    1  UNL11       0.3239
     11 N           0.7453    0.4547    0.9712 N.ar    1  UNL11      -0.2030
     12 C          -0.0835    1.1535    1.7622 C.ar    1  UNL11       0.0350
     13 C          -1.4489    1.0908    1.4581 C.ar    1  UNL11      -0.0173
     14 C          -1.9113    0.3472    0.3985 C.ar    1  UNL11       0.0778
     15 C          -3.3206    0.2574    0.0513 C.ar    1  UNL11       0.0006
     16 C          -3.8052   -0.8994   -0.5434 C.ar    1  UNL11      -0.0526
     17 C          -5.1383   -1.0373   -0.8943 C.ar    1  UNL11      -0.0611
     18 C          -6.0313   -0.0230   -0.6620 C.ar    1  UNL11      -0.0617
     19 C          -5.5743    1.1370   -0.0720 C.ar    1  UNL11      -0.0611
     20 C          -4.2322    1.2499    0.2702 C.ar    1  UNL11      -0.0526
     21 N          -0.9969   -0.3230   -0.3408 N.ar    1  UNL11      -0.1946
     22 C           1.6932   -2.3375   -2.7153 C.ar    1  UNL11       0.0108
     23 H           0.7488   -2.0129   -5.9335 H       1  UNL11       0.0640
     24 H          -0.3031   -0.0055   -4.9882 H       1  UNL11       0.0619
     25 H          -0.0841    0.5158   -2.5995 H       1  UNL11       0.0654
     26 H           0.2195    1.7539    2.6063 H       1  UNL11       0.0832
     27 H          -2.1642    1.6297    2.0558 H       1  UNL11       0.0654
     28 H          -3.1421   -1.7310   -0.7489 H       1  UNL11       0.0624
     29 H          -5.5187   -1.9421   -1.3597 H       1  UNL11       0.0618
     30 H          -7.0746   -0.1599   -0.9488 H       1  UNL11       0.0618
     31 H          -6.2831    1.9340    0.1089 H       1  UNL11       0.0618
     32 H          -3.9443    2.1848    0.7281 H       1  UNL11       0.0624
     33 H           2.2642   -3.0206   -2.1093 H       1  UNL11       0.0677
     34 H           3.3081   -5.4125   -4.1572 H       1  UNL11       0.3292
@<TRIPOS>BOND
     1     1     2    2
     2     2     3    1
     3     2     4    1
     4     4     5   ar
     5     5     6   ar
     6     5    23    1
     7     6     7   ar
     8     6    24    1
     9     7     8   ar
    10     7    25    1
    11     8     9    1
    12     8    22   ar
    13     9    10    1
    14    10    11   ar
    15    11    12   ar
    16    12    13   ar
    17    12    26    1
    18    13    14   ar
    19    13    27    1
    20    14    15    1
    21    14    21   ar
    22    15    16   ar
    23    16    17   ar
    24    16    28    1
    25    17    18   ar
    26    17    29    1
    27    18    19   ar
    28    18    30    1
    29    19    20   ar
    30    19    31    1
    31    20    15   ar
    32    20    32    1
    33    21    10   ar
    34    22     4   ar
    35    22    33    1
    36     3    34    1
@<TRIPOS>MOLECULE
*****
 34 36 0 0 0
SMALL
GASTEIGER

@<TRIPOS>ATOM
      1 O           5.9313    2.2482    0.6663 O.2     1  UNL11      -0.1300
      2 N           5.0597    1.3997    0.9281 N.4     1  UNL11       0.0061
      3 O           4.6870    1.2068    2.2351 O.2     1  UNL11      -0.3961
      4 C           4.4699    0.6508   -0.1250 C.ar    1  UNL11       0.1251
      5 C           5.1658    0.3651   -1.2741 C.ar    1  UNL11      -0.0314
      6 C           4.5637   -0.3682   -2.2854 C.ar    1  UNL11      -0.0561
      7 C           3.2422   -0.8148   -2.1266 C.ar    1  UNL11      -0.0191
      8 C           2.5455   -0.5313   -0.9816 C.ar    1  UNL11       0.1340
      9 O           1.2597   -0.9652   -0.8257 O.3     1  UNL11      -0.4235
     10 C           0.3049   -0.2805   -0.0737 C.ar    1  UNL11       0.3239
     11 N           0.7453    0.4547    0.9712 N.ar    1  UNL11      -0.2030
     12 C          -0.0835    1.1535    1.7622 C.ar    1  UNL11       0.0350
     13 C          -1.4489    1.0908    1.4581 C.ar    1  UNL11      -0.0173
     14 C          -1.9113    0.3472    0.3985 C.ar    1  UNL11       0.0778
     15 C          -3.3206    0.2574    0.0513 C.ar    1  UNL11       0.0006
     16 C          -4.1629    1.3241    0.3332 C.ar    1  UNL11      -0.0526
     17 C          -5.5128    1.2908    0.0238 C.ar    1  UNL11      -0.0611
     18 C          -6.0656    0.1896   -0.5781 C.ar    1  UNL11      -0.0617
     19 C          -5.2493   -0.8837   -0.8686 C.ar    1  UNL11      -0.0611
     20 C          -3.8985   -0.8248   -0.5477 C.ar    1  UNL11      -0.0526
     21 N          -0.9969   -0.3230   -0.3408 N.ar    1  UNL11      -0.1946
     22 C           3.1607    0.1936    0.0021 C.ar    1  UNL11       0.0108
     23 H           6.1894    0.7206   -1.3775 H       1  UNL11       0.0640
     24 H           5.1348   -0.5769   -3.1758 H       1  UNL11       0.0619
     25 H           2.8270   -1.3824   -2.9506 H       1  UNL11       0.0654
     26 H           0.2195    1.7539    2.6063 H       1  UNL11       0.0832
     27 H          -2.1642    1.6297    2.0558 H       1  UNL11       0.0654
     28 H          -3.7773    2.2181    0.8081 H       1  UNL11       0.0624
     29 H          -6.1729    2.1249    0.2439 H       1  UNL11       0.0618
     30 H          -7.1312    0.1918   -0.8100 H       1  UNL11       0.0618
     31 H          -5.6905   -1.7497   -1.3434 H       1  UNL11       0.0618
     32 H          -3.3194   -1.6999   -0.8036 H       1  UNL11       0.0624
     33 H           2.6392    0.4323    0.9137 H       1  UNL11       0.0677
     34 H           5.0878    1.7108    2.9158 H       1  UNL11       0.3292
@<TRIPOS>BOND
     1     1     2    2
     2     2     3    1
     3     2     4    1
     4     4     5   ar
     5     5     6   ar
     6     5    23    1
     7     6     7   ar
     8     6    24    1
     9     7     8   ar
    10     7    25    1
    11     8     9    1
    12     8    22   ar
    13     9    10    1
    14    10    11   ar
    15    11    12   ar
    16    12    13   ar
    17    12    26    1
    18    13    14   ar
    19    13    27    1
    20    14    15    1
    21    14    21   ar
    22    15    16   ar
    23    16    17   ar
    24    16    28    1
    25    17    18   ar
    26    17    29    1
    27    18    19   ar
    28    18    30    1
    29    19    20   ar
    30    19    31    1
    31    20    15   ar
    32    20    32    1
    33    21    10   ar
    34    22     4   ar
    35    22    33    1
    36     3    34    1
@<TRIPOS>MOLECULE
*****
 34 36 0 0 0
SMALL
GASTEIGER

@<TRIPOS>ATOM
      1 O          -2.4162   -4.0239   -4.2171 O.2     1  UNL11      -0.1300
      2 N          -1.8644   -3.8058   -3.1233 N.4     1  UNL11       0.0061
      3 O          -2.4947   -4.1964   -1.9681 O.2     1  UNL11      -0.3961
      4 C          -0.5995   -3.1604   -3.0912 C.ar    1  UNL11       0.1251
      5 C           0.2969   -3.2955   -4.1229 C.ar    1  UNL11      -0.0314
      6 C           1.5246   -2.6533   -4.0636 C.ar    1  UNL11      -0.0561
      7 C           1.8432   -1.8667   -2.9451 C.ar    1  UNL11      -0.0191
      8 C           0.9511   -1.7301   -1.9145 C.ar    1  UNL11       0.1340
      9 O           1.2597   -0.9652   -0.8257 O.3     1  UNL11      -0.4235
     10 C           0.3049   -0.2805   -0.0737 C.ar    1  UNL11       0.3239
     11 N           0.7453    0.4547    0.9712 N.ar    1  UNL11      -0.2030
     12 C          -0.0835    1.1535    1.7622 C.ar    1  UNL11       0.0350
     13 C          -1.4489    1.0908    1.4581 C.ar    1  UNL11      -0.0173
     14 C          -1.9113    0.3472    0.3985 C.ar    1  UNL11       0.0778
     15 C          -3.3206    0.2574    0.0513 C.ar    1  UNL11       0.0006
     16 C          -3.6870    0.0716   -1.2746 C.ar    1  UNL11      -0.0526
     17 C          -5.0145   -0.0206   -1.6598 C.ar    1  UNL11      -0.0611
     18 C          -6.0200    0.0699   -0.7319 C.ar    1  UNL11      -0.0617
     19 C          -5.6818    0.2547    0.5925 C.ar    1  UNL11      -0.0611
     20 C          -4.3426    0.3439    0.9524 C.ar    1  UNL11      -0.0526
     21 N          -0.9969   -0.3230   -0.3408 N.ar    1  UNL11      -0.1946
     22 C          -0.2537   -2.3733   -1.9957 C.ar    1  UNL11       0.0108
     23 H           0.0306   -3.9098   -4.9811 H       1  UNL11       0.0640
     24 H           2.2077   -2.7779   -4.8883 H       1  UNL11       0.0619
     25 H           2.8163   -1.3907   -2.9568 H       1  UNL11       0.0654
     26 H           0.2195    1.7539    2.6063 H       1  UNL11       0.0832
     27 H          -2.1642    1.6297    2.0558 H       1  UNL11       0.0654
     28 H          -2.9320   -0.0064   -2.0475 H       1  UNL11       0.0624
     29 H          -5.3024   -0.1660   -2.6970 H       1  UNL11       0.0618
     30 H          -7.0559   -0.0062   -1.0644 H       1  UNL11       0.0618
     31 H          -6.4790    0.3254    1.3203 H       1  UNL11       0.0618
     32 H          -4.1509    0.4883    2.0055 H       1  UNL11       0.0624
     33 H          -0.9759   -2.2852   -1.2016 H       1  UNL11       0.0677
     34 H          -3.3289   -4.6208   -2.0100 H       1  UNL11       0.3292
@<TRIPOS>BOND
     1     1     2    2
     2     2     3    1
     3     2     4    1
     4     4     5   ar
     5     5     6   ar
     6     5    23    1
     7     6     7   ar
     8     6    24    1
     9     7     8   ar
    10     7    25    1
    11     8     9    1
    12     8    22   ar
    13     9    10    1
    14    10    11   ar
    15    11    12   ar
    16    12    13   ar
    17    12    26    1
    18    13    14   ar
    19    13    27    1
    20    14    15    1
    21    14    21   ar
    22    15    16   ar
    23    16    17   ar
    24    16    28    1
    25    17    18   ar
    26    17    29    1
    27    18    19   ar
    28    18    30    1
    29    19    20   ar
    30    19    31    1
    31    20    15   ar
    32    20    32    1
    33    21    10   ar
    34    22     4   ar
    35    22    33    1
    36     3    34    1
@<TRIPOS>MOLECULE
*****
 34 36 0 0 0
SMALL
GASTEIGER

@<TRIPOS>ATOM
      1 O          -1.1044   -0.1073   -6.1220 O.2     1  UNL11      -0.1300
      2 N          -0.4910    0.3017   -5.1197 N.4     1  UNL11       0.0061
      3 O          -0.5471    1.6357   -4.8010 O.2     1  UNL11      -0.3961
      4 C           0.2517   -0.6148   -4.3285 C.ar    1  UNL11       0.1251
      5 C           0.8177   -1.7382   -4.8798 C.ar    1  UNL11      -0.0314
      6 C           1.5373   -2.6150   -4.0822 C.ar    1  UNL11      -0.0561
      7 C           1.6826   -2.3470   -2.7117 C.ar    1  UNL11      -0.0191
      8 C           1.1192   -1.2273   -2.1589 C.ar    1  UNL11       0.1340
      9 O           1.2597   -0.9652   -0.8257 O.3     1  UNL11      -0.4235
     10 C           0.3049   -0.2805   -0.0737 C.ar    1  UNL11       0.3239
     11 N           0.7453    0.4547    0.9712 N.ar    1  UNL11      -0.2030
     12 C          -0.0835    1.1535    1.7622 C.ar    1  UNL11       0.0350
     13 C          -1.4489    1.0908    1.4581 C.ar    1  UNL11      -0.0173
     14 C          -1.9113    0.3472    0.3985 C.ar    1  UNL11       0.0778
     15 C          -3.3206    0.2574    0.0513 C.ar    1  UNL11       0.0006
     16 C          -4.2787    0.3736    1.0490 C.ar    1  UNL11      -0.0526
     17 C          -5.6340    0.2955    0.7732 C.ar    1  UNL11      -0.0611
     18 C          -6.0766    0.0987   -0.5097 C.ar    1  UNL11      -0.0617
     19 C          -5.1440   -0.0199   -1.5191 C.ar    1  UNL11      -0.0611
     20 C          -3.7905    0.0620   -1.2156 C.ar    1  UNL11      -0.0526
     21 N          -0.9969   -0.3230   -0.3408 N.ar    1  UNL11      -0.1946
     22 C           0.4138   -0.3771   -2.9659 C.ar    1  UNL11       0.0108
     23 H           0.6933   -1.9278   -5.9444 H       1  UNL11       0.0640
     24 H           1.9700   -3.4884   -4.5430 H       1  UNL11       0.0619
     25 H           2.2552   -3.0684   -2.1414 H       1  UNL11       0.0654
     26 H           0.2195    1.7539    2.6063 H       1  UNL11       0.0832
     27 H          -2.1642    1.6297    2.0558 H       1  UNL11       0.0654
     28 H          -3.9829    0.5300    2.0793 H       1  UNL11       0.0624
     29 H          -6.3846    0.3863    1.5530 H       1  UNL11       0.0618
     30 H          -7.1495    0.0414   -0.6968 H       1  UNL11       0.0618
     31 H          -5.4987   -0.1751   -2.5292 H       1  UNL11       0.0618
     32 H          -3.1171   -0.0393   -2.0540 H       1  UNL11       0.0624
     33 H          -0.0407    0.5113   -2.5608 H       1  UNL11       0.0677
     34 H          -1.0424    2.2247   -5.3356 H       1  UNL11       0.3292
@<TRIPOS>BOND
     1     1     2    2
     2     2     3    1
     3     2     4    1
     4     4     5   ar
     5     5     6   ar
     6     5    23    1
     7     6     7   ar
     8     6    24    1
     9     7     8   ar
    10     7    25    1
    11     8     9    1
    12     8    22   ar
    13     9    10    1
    14    10    11   ar
    15    11    12   ar
    16    12    13   ar
    17    12    26    1
    18    13    14   ar
    19    13    27    1
    20    14    15    1
    21    14    21   ar
    22    15    16   ar
    23    16    17   ar
    24    16    28    1
    25    17    18   ar
    26    17    29    1
    27    18    19   ar
    28    18    30    1
    29    19    20   ar
    30    19    31    1
    31    20    15   ar
    32    20    32    1
    33    21    10   ar
    34    22     4   ar
    35    22    33    1
    36     3    34    1
@<TRIPOS>MOLECULE
*****
 34 36 0 0 0
SMALL
GASTEIGER

@<TRIPOS>ATOM
      1 O          -0.5100    1.5068   -4.8102 O.2     1  UNL11      -0.1300
      2 N          -0.4910    0.3017   -5.1197 N.4     1  UNL11       0.0061
      3 O          -1.1916   -0.1150   -6.2241 O.2     1  UNL11      -0.3961
      4 C           0.2517   -0.6148   -4.3285 C.ar    1  UNL11       0.1251
      5 C           0.8177   -1.7382   -4.8798 C.ar    1  UNL11      -0.0314
      6 C           1.5373   -2.6150   -4.0822 C.ar    1  UNL11      -0.0561
      7 C           1.6826   -2.3470   -2.7117 C.ar    1  UNL11      -0.0191
      8 C           1.1192   -1.2273   -2.1589 C.ar    1  UNL11       0.1340
      9 O           1.2597   -0.9652   -0.8257 O.3     1  UNL11      -0.4235
     10 C           0.3049   -0.2805   -0.0737 C.ar    1  UNL11       0.3239
     11 N           0.7453    0.4547    0.9712 N.ar    1  UNL11      -0.2030
     12 C          -0.0835    1.1535    1.7622 C.ar    1  UNL11       0.0350
     13 C          -1.4489    1.0908    1.4581 C.ar    1  UNL11      -0.0173
     14 C          -1.9113    0.3472    0.3985 C.ar    1  UNL11       0.0778
     15 C          -3.3206    0.2574    0.0513 C.ar    1  UNL11       0.0006
     16 C          -4.2787    0.3736    1.0490 C.ar    1  UNL11      -0.0526
     17 C          -5.6340    0.2955    0.7732 C.ar    1  UNL11      -0.0611
     18 C          -6.0766    0.0987   -0.5097 C.ar    1  UNL11      -0.0617
     19 C          -5.1440   -0.0199   -1.5191 C.ar    1  UNL11      -0.0611
     20 C          -3.7905    0.0620   -1.2156 C.ar    1  UNL11      -0.0526
     21 N          -0.9969   -0.3230   -0.3408 N.ar    1  UNL11      -0.1946
     22 C           0.4138   -0.3771   -2.9659 C.ar    1  UNL11       0.0108
     23 H           0.6933   -1.9278   -5.9444 H       1  UNL11       0.0640
     24 H           1.9700   -3.4884   -4.5430 H       1  UNL11       0.0619
     25 H           2.2552   -3.0684   -2.1414 H       1  UNL11       0.0654
     26 H           0.2195    1.7539    2.6063 H       1  UNL11       0.0832
     27 H          -2.1642    1.6297    2.0558 H       1  UNL11       0.0654
     28 H          -3.9829    0.5300    2.0793 H       1  UNL11       0.0624
     29 H          -6.3846    0.3863    1.5530 H       1  UNL11       0.0618
     30 H          -7.1495    0.0414   -0.6968 H       1  UNL11       0.0618
     31 H          -5.4987   -0.1751   -2.5292 H       1  UNL11       0.0618
     32 H          -3.1171   -0.0393   -2.0540 H       1  UNL11       0.0624
     33 H          -0.0407    0.5113   -2.5608 H       1  UNL11       0.0677
     34 H          -1.6756    0.5050   -6.7333 H       1  UNL11       0.3292
@<TRIPOS>BOND
     1     1     2    2
     2     2     3    1
     3     2     4    1
     4     4     5   ar
     5     5     6   ar
     6     5    23    1
     7     6     7   ar
     8     6    24    1
     9     7     8   ar
    10     7    25    1
    11     8     9    1
    12     8    22   ar
    13     9    10    1
    14    10    11   ar
    15    11    12   ar
    16    12    13   ar
    17    12    26    1
    18    13    14   ar
    19    13    27    1
    20    14    15    1
    21    14    21   ar
    22    15    16   ar
    23    16    17   ar
    24    16    28    1
    25    17    18   ar
    26    17    29    1
    27    18    19   ar
    28    18    30    1
    29    19    20   ar
    30    19    31    1
    31    20    15   ar
    32    20    32    1
    33    21    10   ar
    34    22     4   ar
    35    22    33    1
    36     3    34    1
@<TRIPOS>MOLECULE
*****
 34 36 0 0 0
SMALL
GASTEIGER

@<TRIPOS>ATOM
      1 O          -1.9912   -4.8807   -3.7372 O.2     1  UNL11      -0.1300
      2 N          -1.8644   -3.8058   -3.1233 N.4     1  UNL11       0.0061
      3 O          -2.9557   -3.2670   -2.4885 O.2     1  UNL11      -0.3961
      4 C          -0.5995   -3.1604   -3.0912 C.ar    1  UNL11       0.1251
      5 C           0.2969   -3.2955   -4.1229 C.ar    1  UNL11      -0.0314
      6 C           1.5246   -2.6533   -4.0636 C.ar    1  UNL11      -0.0561
      7 C           1.8432   -1.8667   -2.9451 C.ar    1  UNL11      -0.0191
      8 C           0.9511   -1.7301   -1.9145 C.ar    1  UNL11       0.1340
      9 O           1.2597   -0.9652   -0.8257 O.3     1  UNL11      -0.4235
     10 C           0.3049   -0.2805   -0.0737 C.ar    1  UNL11       0.3239
     11 N           0.7453    0.4547    0.9712 N.ar    1  UNL11      -0.2030
     12 C          -0.0835    1.1535    1.7622 C.ar    1  UNL11       0.0350
     13 C          -1.4489    1.0908    1.4581 C.ar    1  UNL11      -0.0173
     14 C          -1.9113    0.3472    0.3985 C.ar    1  UNL11       0.0778
     15 C          -3.3206    0.2574    0.0513 C.ar    1  UNL11       0.0006
     16 C          -4.1629    1.3241    0.3332 C.ar    1  UNL11      -0.0526
     17 C          -5.5128    1.2908    0.0238 C.ar    1  UNL11      -0.0611
     18 C          -6.0656    0.1896   -0.5781 C.ar    1  UNL11      -0.0617
     19 C          -5.2493   -0.8837   -0.8686 C.ar    1  UNL11      -0.0611
     20 C          -3.8985   -0.8248   -0.5477 C.ar    1  UNL11      -0.0526
     21 N          -0.9969   -0.3230   -0.3408 N.ar    1  UNL11      -0.1946
     22 C          -0.2537   -2.3733   -1.9957 C.ar    1  UNL11       0.0108
     23 H           0.0306   -3.9098   -4.9811 H       1  UNL11       0.0640
     24 H           2.2077   -2.7779   -4.8883 H       1  UNL11       0.0619
     25 H           2.8163   -1.3907   -2.9568 H       1  UNL11       0.0654
     26 H           0.2195    1.7539    2.6063 H       1  UNL11       0.0832
     27 H          -2.1642    1.6297    2.0558 H       1  UNL11       0.0654
     28 H          -3.7773    2.2181    0.8081 H       1  UNL11       0.0624
     29 H          -6.1729    2.1249    0.2439 H       1  UNL11       0.0618
     30 H          -7.1312    0.1918   -0.8100 H       1  UNL11       0.0618
     31 H          -5.6905   -1.7497   -1.3434 H       1  UNL11       0.0618
     32 H          -3.3194   -1.6999   -0.8036 H       1  UNL11       0.0624
     33 H          -0.9759   -2.2852   -1.2016 H       1  UNL11       0.0677
     34 H          -3.7818   -3.7079   -2.5212 H       1  UNL11       0.3292
@<TRIPOS>BOND
     1     1     2    2
     2     2     3    1
     3     2     4    1
     4     4     5   ar
     5     5     6   ar
     6     5    23    1
     7     6     7   ar
     8     6    24    1
     9     7     8   ar
    10     7    25    1
    11     8     9    1
    12     8    22   ar
    13     9    10    1
    14    10    11   ar
    15    11    12   ar
    16    12    13   ar
    17    12    26    1
    18    13    14   ar
    19    13    27    1
    20    14    15    1
    21    14    21   ar
    22    15    16   ar
    23    16    17   ar
    24    16    28    1
    25    17    18   ar
    26    17    29    1
    27    18    19   ar
    28    18    30    1
    29    19    20   ar
    30    19    31    1
    31    20    15   ar
    32    20    32    1
    33    21    10   ar
    34    22     4   ar
    35    22    33    1
    36     3    34    1
