@<TRIPOS>MOLECULE
*****
 34 36 0 0 0
SMALL
GASTEIGER

@<TRIPOS>ATOM
      1 C          -1.2614    2.5884   -1.0389 C.3     1  UNL11      -0.0359
      2 C          -1.7989    1.6003   -0.0620 C.ar    1  UNL11      -0.0050
      3 C          -2.5401    2.1003    0.9883 C.ar    1  UNL11      -0.0550
      4 C          -3.0604    1.2370    1.9189 C.ar    1  UNL11      -0.0613
      5 C          -2.8306   -0.1108    1.7831 C.ar    1  UNL11      -0.0579
      6 C          -2.0861   -0.5939    0.7251 C.ar    1  UNL11      -0.0159
      7 C          -1.5468    0.2491   -0.2313 C.ar    1  UNL11       0.1388
      8 N          -0.7431   -0.2097   -1.3251 N.am    1  UNL11      -0.0504
      9 C           0.5712   -0.3687   -1.4582 C.2     1  UNL11       0.4130
     10 C           1.6071   -0.0954   -0.4615 C.ar    1  UNL11       0.1148
     11 C           2.7612   -0.8153   -0.4411 C.ar    1  UNL11      -0.0396
     12 C           3.7538   -0.5849    0.5343 C.ar    1  UNL11      -0.0191
     13 C           3.5944    0.3755    1.5008 C.ar    1  UNL11       0.1204
     14 O           4.5690    0.6139    2.4718 O.3     1  UNL11      -0.5066
     15 C           2.4347    1.0950    1.4747 C.ar    1  UNL11       0.0222
     16 C           1.4310    0.8756    0.5048 C.ar    1  UNL11       0.1354
     17 O           0.3322    1.6852    0.6275 O.3     1  UNL11      -0.5058
     18 N           0.8426   -0.8126   -2.7330 N.2     1  UNL11       0.2263
     19 N          -0.3070   -0.9121   -3.3373 N.am    1  UNL11       0.0968
     20 C          -1.3104   -0.5597   -2.5336 C.2     1  UNL11       0.6257
     21 O          -2.5503   -0.5250   -2.7539 O.2     1  UNL11      -0.1726
     22 H          -1.1088    2.1150   -2.0088 H       1  UNL11       0.0279
     23 H          -1.9849    3.4389   -1.1349 H       1  UNL11       0.0279
     24 H          -0.2983    3.0129   -0.6472 H       1  UNL11       0.0279
     25 H          -2.7348    3.1645    1.1156 H       1  UNL11       0.0621
     26 H          -3.6511    1.6236    2.7579 H       1  UNL11       0.0618
     27 H          -3.2547   -0.7729    2.5351 H       1  UNL11       0.0619
     28 H          -1.9145   -1.6491    0.6315 H       1  UNL11       0.0658
     29 H           3.0315   -1.5834   -1.1478 H       1  UNL11       0.0628
     30 H           4.6661   -1.1610    0.5438 H       1  UNL11       0.0654
     31 H           4.5610    0.1161    3.3613 H       1  UNL11       0.2921
     32 H           2.3077    1.8616    2.2456 H       1  UNL11       0.0691
     33 H          -0.4762    1.7187    0.0961 H       1  UNL11       0.2922
     34 H          -0.5073   -1.2241   -4.3353 H       1  UNL11       0.5148
@<TRIPOS>BOND
     1     1     2    1
     2     1    22    1
     3     1    23    1
     4     1    24    1
     5     2     3   ar
     6     3     4   ar
     7     3    25    1
     8     4     5   ar
     9     4    26    1
    10     5     6   ar
    11     5    27    1
    12     6     7   ar
    13     6    28    1
    14     7     8    1
    15     7     2   ar
    16     8     9    1
    17     9    10    1
    18     9    18    2
    19    10    11   ar
    20    11    12   ar
    21    11    29    1
    22    12    13   ar
    23    12    30    1
    24    13    14    1
    25    13    15   ar
    26    14    31    1
    27    15    16   ar
    28    15    32    1
    29    16    17    1
    30    16    10   ar
    31    17    33    1
    32    18    19    1
    33    19    20   am
    34    19    34    1
    35    20    21    2
    36    20     8   am
@<TRIPOS>MOLECULE
*****
 34 36 0 0 0
SMALL
GASTEIGER

@<TRIPOS>ATOM
      1 C          -1.8265   -2.1105    0.5169 C.3     1  UNL11      -0.0359
      2 C          -2.0958   -0.6527    0.6649 C.ar    1  UNL11      -0.0050
      3 C          -2.9008   -0.2702    1.7176 C.ar    1  UNL11      -0.0550
      4 C          -3.1830    1.0595    1.9033 C.ar    1  UNL11      -0.0613
      5 C          -2.6556    1.9831    1.0335 C.ar    1  UNL11      -0.0579
      6 C          -1.8515    1.5820   -0.0152 C.ar    1  UNL11      -0.0159
      7 C          -1.5468    0.2491   -0.2313 C.ar    1  UNL11       0.1388
      8 N          -0.7431   -0.2097   -1.3251 N.am    1  UNL11      -0.0504
      9 C           0.5712   -0.3687   -1.4582 C.2     1  UNL11       0.4130
     10 C           1.6071   -0.0954   -0.4615 C.ar    1  UNL11       0.1148
     11 C           2.7612   -0.8153   -0.4411 C.ar    1  UNL11      -0.0396
     12 C           3.7538   -0.5849    0.5343 C.ar    1  UNL11      -0.0191
     13 C           3.5944    0.3755    1.5008 C.ar    1  UNL11       0.1204
     14 O           4.5690    0.6139    2.4718 O.3     1  UNL11      -0.5066
     15 C           2.4347    1.0950    1.4747 C.ar    1  UNL11       0.0222
     16 C           1.4310    0.8756    0.5048 C.ar    1  UNL11       0.1354
     17 O           0.3322    1.6852    0.6275 O.3     1  UNL11      -0.5058
     18 N           0.8426   -0.8126   -2.7330 N.2     1  UNL11       0.2263
     19 N          -0.3070   -0.9121   -3.3373 N.am    1  UNL11       0.0968
     20 C          -1.3104   -0.5597   -2.5336 C.2     1  UNL11       0.6257
     21 O          -2.5503   -0.5250   -2.7539 O.2     1  UNL11      -0.1726
     22 H          -0.8817   -2.2686   -0.0032 H       1  UNL11       0.0279
     23 H          -1.7900   -2.5810    1.5334 H       1  UNL11       0.0279
     24 H          -2.6738   -2.5907   -0.0423 H       1  UNL11       0.0279
     25 H          -3.3294   -0.9848    2.4191 H       1  UNL11       0.0621
     26 H          -3.8218    1.3749    2.7368 H       1  UNL11       0.0618
     27 H          -2.8954    3.0305    1.2038 H       1  UNL11       0.0619
     28 H          -1.4463    2.3143   -0.6869 H       1  UNL11       0.0658
     29 H           3.0315   -1.5834   -1.1478 H       1  UNL11       0.0628
     30 H           4.6661   -1.1610    0.5438 H       1  UNL11       0.0654
     31 H           4.5610    0.1161    3.3613 H       1  UNL11       0.2921
     32 H           2.3077    1.8616    2.2456 H       1  UNL11       0.0691
     33 H          -0.4762    1.7187    0.0961 H       1  UNL11       0.2922
     34 H          -0.5073   -1.2241   -4.3353 H       1  UNL11       0.5148
@<TRIPOS>BOND
     1     1     2    1
     2     1    22    1
     3     1    23    1
     4     1    24    1
     5     2     3   ar
     6     3     4   ar
     7     3    25    1
     8     4     5   ar
     9     4    26    1
    10     5     6   ar
    11     5    27    1
    12     6     7   ar
    13     6    28    1
    14     7     8    1
    15     7     2   ar
    16     8     9    1
    17     9    10    1
    18     9    18    2
    19    10    11   ar
    20    11    12   ar
    21    11    29    1
    22    12    13   ar
    23    12    30    1
    24    13    14    1
    25    13    15   ar
    26    14    31    1
    27    15    16   ar
    28    15    32    1
    29    16    17    1
    30    16    10   ar
    31    17    33    1
    32    18    19    1
    33    19    20   am
    34    19    34    1
    35    20    21    2
    36    20     8   am
@<TRIPOS>MOLECULE
*****
 34 36 0 0 0
SMALL
GASTEIGER

@<TRIPOS>ATOM
      1 C          -0.7312   -1.6671    1.1357 C.3     1  UNL11      -0.0359
      2 C          -1.5704   -0.4480    0.9651 C.ar    1  UNL11      -0.0050
      3 C          -2.3475   -0.0694    2.0399 C.ar    1  UNL11      -0.0550
      4 C          -3.1407    1.0455    1.9403 C.ar    1  UNL11      -0.0613
      5 C          -3.1429    1.7622    0.7680 C.ar    1  UNL11      -0.0579
      6 C          -2.3584    1.3685   -0.2981 C.ar    1  UNL11      -0.0159
      7 C          -1.5468    0.2491   -0.2313 C.ar    1  UNL11       0.1388
      8 N          -0.7431   -0.2097   -1.3251 N.am    1  UNL11      -0.0504
      9 C           0.5712   -0.3687   -1.4582 C.2     1  UNL11       0.4130
     10 C           1.6071   -0.0954   -0.4615 C.ar    1  UNL11       0.1148
     11 C           2.7612   -0.8153   -0.4411 C.ar    1  UNL11      -0.0396
     12 C           3.7538   -0.5849    0.5343 C.ar    1  UNL11      -0.0191
     13 C           3.5944    0.3755    1.5008 C.ar    1  UNL11       0.1204
     14 O           4.5690    0.6139    2.4718 O.3     1  UNL11      -0.5066
     15 C           2.4347    1.0950    1.4747 C.ar    1  UNL11       0.0222
     16 C           1.4310    0.8756    0.5048 C.ar    1  UNL11       0.1354
     17 O           0.3322    1.6852    0.6275 O.3     1  UNL11      -0.5058
     18 N           0.8426   -0.8126   -2.7330 N.2     1  UNL11       0.2263
     19 N          -0.3070   -0.9121   -3.3373 N.am    1  UNL11       0.0968
     20 C          -1.3104   -0.5597   -2.5336 C.2     1  UNL11       0.6257
     21 O          -2.5503   -0.5250   -2.7539 O.2     1  UNL11      -0.1726
     22 H           0.1331   -1.6258    0.4728 H       1  UNL11       0.0279
     23 H          -0.3953   -1.7339    2.2029 H       1  UNL11       0.0279
     24 H          -1.3518   -2.5789    0.9241 H       1  UNL11       0.0279
     25 H          -2.3613   -0.6223    2.9784 H       1  UNL11       0.0621
     26 H          -3.7625    1.3556    2.7885 H       1  UNL11       0.0618
     27 H          -3.7810    2.6419    0.7161 H       1  UNL11       0.0619
     28 H          -2.3701    1.9377   -1.2077 H       1  UNL11       0.0658
     29 H           3.0315   -1.5834   -1.1478 H       1  UNL11       0.0628
     30 H           4.6661   -1.1610    0.5438 H       1  UNL11       0.0654
     31 H           4.5610    0.1161    3.3613 H       1  UNL11       0.2921
     32 H           2.3077    1.8616    2.2456 H       1  UNL11       0.0691
     33 H          -0.4762    1.7187    0.0961 H       1  UNL11       0.2922
     34 H          -0.5073   -1.2241   -4.3353 H       1  UNL11       0.5148
@<TRIPOS>BOND
     1     1     2    1
     2     1    22    1
     3     1    23    1
     4     1    24    1
     5     2     3   ar
     6     3     4   ar
     7     3    25    1
     8     4     5   ar
     9     4    26    1
    10     5     6   ar
    11     5    27    1
    12     6     7   ar
    13     6    28    1
    14     7     8    1
    15     7     2   ar
    16     8     9    1
    17     9    10    1
    18     9    18    2
    19    10    11   ar
    20    11    12   ar
    21    11    29    1
    22    12    13   ar
    23    12    30    1
    24    13    14    1
    25    13    15   ar
    26    14    31    1
    27    15    16   ar
    28    15    32    1
    29    16    17    1
    30    16    10   ar
    31    17    33    1
    32    18    19    1
    33    19    20   am
    34    19    34    1
    35    20    21    2
    36    20     8   am
@<TRIPOS>MOLECULE
*****
 34 36 0 0 0
SMALL
GASTEIGER

@<TRIPOS>ATOM
      1 C          -2.3080    2.1647   -1.6302 C.3     1  UNL11      -0.0359
      2 C          -2.3010    1.4046   -0.3488 C.ar    1  UNL11      -0.0050
      3 C          -3.0688    1.9085    0.6803 C.ar    1  UNL11      -0.0550
      4 C          -3.1009    1.2504    1.8836 C.ar    1  UNL11      -0.0613
      5 C          -2.3649    0.1003    2.0368 C.ar    1  UNL11      -0.0579
      6 C          -1.6016   -0.3898    0.9954 C.ar    1  UNL11      -0.0159
      7 C          -1.5468    0.2491   -0.2313 C.ar    1  UNL11       0.1388
      8 N          -0.7431   -0.2097   -1.3251 N.am    1  UNL11      -0.0504
      9 C           0.5712   -0.3687   -1.4582 C.2     1  UNL11       0.4130
     10 C           1.6071   -0.0954   -0.4615 C.ar    1  UNL11       0.1148
     11 C           2.7612   -0.8153   -0.4411 C.ar    1  UNL11      -0.0396
     12 C           3.7538   -0.5849    0.5343 C.ar    1  UNL11      -0.0191
     13 C           3.5944    0.3755    1.5008 C.ar    1  UNL11       0.1204
     14 O           4.5690    0.6139    2.4718 O.3     1  UNL11      -0.5066
     15 C           2.4347    1.0950    1.4747 C.ar    1  UNL11       0.0222
     16 C           1.4310    0.8756    0.5048 C.ar    1  UNL11       0.1354
     17 O           0.3322    1.6852    0.6275 O.3     1  UNL11      -0.5058
     18 N           0.8426   -0.8126   -2.7330 N.2     1  UNL11       0.2263
     19 N          -0.3070   -0.9121   -3.3373 N.am    1  UNL11       0.0968
     20 C          -1.3104   -0.5597   -2.5336 C.2     1  UNL11       0.6257
     21 O          -2.5503   -0.5250   -2.7539 O.2     1  UNL11      -0.1726
     22 H          -2.0785    1.5008   -2.4637 H       1  UNL11       0.0279
     23 H          -3.3177    2.6293   -1.7746 H       1  UNL11       0.0279
     24 H          -1.5615    3.0016   -1.5707 H       1  UNL11       0.0279
     25 H          -3.6599    2.8181    0.5812 H       1  UNL11       0.0621
     26 H          -3.7078    1.6420    2.7086 H       1  UNL11       0.0618
     27 H          -2.4084   -0.4015    3.0012 H       1  UNL11       0.0619
     28 H          -1.0318   -1.2892    1.1292 H       1  UNL11       0.0658
     29 H           3.0315   -1.5834   -1.1478 H       1  UNL11       0.0628
     30 H           4.6661   -1.1610    0.5438 H       1  UNL11       0.0654
     31 H           4.5610    0.1161    3.3613 H       1  UNL11       0.2921
     32 H           2.3077    1.8616    2.2456 H       1  UNL11       0.0691
     33 H          -0.4762    1.7187    0.0961 H       1  UNL11       0.2922
     34 H          -0.5073   -1.2241   -4.3353 H       1  UNL11       0.5148
@<TRIPOS>BOND
     1     1     2    1
     2     1    22    1
     3     1    23    1
     4     1    24    1
     5     2     3   ar
     6     3     4   ar
     7     3    25    1
     8     4     5   ar
     9     4    26    1
    10     5     6   ar
    11     5    27    1
    12     6     7   ar
    13     6    28    1
    14     7     8    1
    15     7     2   ar
    16     8     9    1
    17     9    10    1
    18     9    18    2
    19    10    11   ar
    20    11    12   ar
    21    11    29    1
    22    12    13   ar
    23    12    30    1
    24    13    14    1
    25    13    15   ar
    26    14    31    1
    27    15    16   ar
    28    15    32    1
    29    16    17    1
    30    16    10   ar
    31    17    33    1
    32    18    19    1
    33    19    20   am
    34    19    34    1
    35    20    21    2
    36    20     8   am
@<TRIPOS>MOLECULE
*****
 34 36 0 0 0
SMALL
GASTEIGER

@<TRIPOS>ATOM
      1 C          -0.2854    2.3973   -0.2416 C.3     1  UNL11      -0.0359
      2 C          -1.3342    1.5011    0.3211 C.ar    1  UNL11      -0.0050
      3 C          -2.0570    1.9819    1.3929 C.ar    1  UNL11      -0.0550
      4 C          -3.0359    1.2003    1.9523 C.ar    1  UNL11      -0.0613
      5 C          -3.2749   -0.0480    1.4304 C.ar    1  UNL11      -0.0579
      6 C          -2.5413   -0.5133    0.3568 C.ar    1  UNL11      -0.0159
      7 C          -1.5468    0.2491   -0.2313 C.ar    1  UNL11       0.1388
      8 N          -0.7431   -0.2097   -1.3251 N.am    1  UNL11      -0.0504
      9 C           0.5712   -0.3687   -1.4582 C.2     1  UNL11       0.4130
     10 C           1.6071   -0.0954   -0.4615 C.ar    1  UNL11       0.1148
     11 C           2.7612   -0.8153   -0.4411 C.ar    1  UNL11      -0.0396
     12 C           3.7538   -0.5849    0.5343 C.ar    1  UNL11      -0.0191
     13 C           3.5944    0.3755    1.5008 C.ar    1  UNL11       0.1204
     14 O           4.5690    0.6139    2.4718 O.3     1  UNL11      -0.5066
     15 C           2.4347    1.0950    1.4747 C.ar    1  UNL11       0.0222
     16 C           1.4310    0.8756    0.5048 C.ar    1  UNL11       0.1354
     17 O           0.3322    1.6852    0.6275 O.3     1  UNL11      -0.5058
     18 N           0.8426   -0.8126   -2.7330 N.2     1  UNL11       0.2263
     19 N          -0.3070   -0.9121   -3.3373 N.am    1  UNL11       0.0968
     20 C          -1.3104   -0.5597   -2.5336 C.2     1  UNL11       0.6257
     21 O          -2.5503   -0.5250   -2.7539 O.2     1  UNL11      -0.1726
     22 H          -0.1061    2.1564   -1.2895 H       1  UNL11       0.0279
     23 H          -0.6223    3.4617   -0.1432 H       1  UNL11       0.0279
     24 H           0.6576    2.2894    0.3586 H       1  UNL11       0.0279
     25 H          -1.8847    2.9679    1.8227 H       1  UNL11       0.0621
     26 H          -3.6167    1.5725    2.8047 H       1  UNL11       0.0618
     27 H          -4.0567   -0.6468    1.8930 H       1  UNL11       0.0619
     28 H          -2.7387   -1.4903   -0.0407 H       1  UNL11       0.0658
     29 H           3.0315   -1.5834   -1.1478 H       1  UNL11       0.0628
     30 H           4.6661   -1.1610    0.5438 H       1  UNL11       0.0654
     31 H           4.5610    0.1161    3.3613 H       1  UNL11       0.2921
     32 H           2.3077    1.8616    2.2456 H       1  UNL11       0.0691
     33 H          -0.4762    1.7187    0.0961 H       1  UNL11       0.2922
     34 H          -0.5073   -1.2241   -4.3353 H       1  UNL11       0.5148
@<TRIPOS>BOND
     1     1     2    1
     2     1    22    1
     3     1    23    1
     4     1    24    1
     5     2     3   ar
     6     3     4   ar
     7     3    25    1
     8     4     5   ar
     9     4    26    1
    10     5     6   ar
    11     5    27    1
    12     6     7   ar
    13     6    28    1
    14     7     8    1
    15     7     2   ar
    16     8     9    1
    17     9    10    1
    18     9    18    2
    19    10    11   ar
    20    11    12   ar
    21    11    29    1
    22    12    13   ar
    23    12    30    1
    24    13    14    1
    25    13    15   ar
    26    14    31    1
    27    15    16   ar
    28    15    32    1
    29    16    17    1
    30    16    10   ar
    31    17    33    1
    32    18    19    1
    33    19    20   am
    34    19    34    1
    35    20    21    2
    36    20     8   am
@<TRIPOS>MOLECULE
*****
 34 36 0 0 0
SMALL
GASTEIGER

@<TRIPOS>ATOM
      1 C          -2.7974   -1.9048   -0.2828 C.3     1  UNL11      -0.0359
      2 C          -2.5581   -0.5466    0.2807 C.ar    1  UNL11      -0.0050
      3 C          -3.3811   -0.1444    1.3119 C.ar    1  UNL11      -0.0550
      4 C          -3.2070    1.0966    1.8701 C.ar    1  UNL11      -0.0613
      5 C          -2.2133    1.9137    1.3875 C.ar    1  UNL11      -0.0579
      6 C          -1.3985    1.4946    0.3543 C.ar    1  UNL11      -0.0159
      7 C          -1.5468    0.2491   -0.2313 C.ar    1  UNL11       0.1388
      8 N          -0.7431   -0.2097   -1.3251 N.am    1  UNL11      -0.0504
      9 C           0.5712   -0.3687   -1.4582 C.2     1  UNL11       0.4130
     10 C           1.6071   -0.0954   -0.4615 C.ar    1  UNL11       0.1148
     11 C           2.7612   -0.8153   -0.4411 C.ar    1  UNL11      -0.0396
     12 C           3.7538   -0.5849    0.5343 C.ar    1  UNL11      -0.0191
     13 C           3.5944    0.3755    1.5008 C.ar    1  UNL11       0.1204
     14 O           4.5690    0.6139    2.4718 O.3     1  UNL11      -0.5066
     15 C           2.4347    1.0950    1.4747 C.ar    1  UNL11       0.0222
     16 C           1.4310    0.8756    0.5048 C.ar    1  UNL11       0.1354
     17 O           0.3322    1.6852    0.6275 O.3     1  UNL11      -0.5058
     18 N           0.8426   -0.8126   -2.7330 N.2     1  UNL11       0.2263
     19 N          -0.3070   -0.9121   -3.3373 N.am    1  UNL11       0.0968
     20 C          -1.3104   -0.5597   -2.5336 C.2     1  UNL11       0.6257
     21 O          -2.5503   -0.5250   -2.7539 O.2     1  UNL11      -0.1726
     22 H          -1.8818   -2.2956   -0.7268 H       1  UNL11       0.0279
     23 H          -3.1488   -2.5842    0.5363 H       1  UNL11       0.0279
     24 H          -3.6188   -1.8513   -1.0468 H       1  UNL11       0.0279
     25 H          -4.1748   -0.7754    1.7101 H       1  UNL11       0.0621
     26 H          -3.8556    1.4266    2.6903 H       1  UNL11       0.0618
     27 H          -2.0972    2.8925    1.8482 H       1  UNL11       0.0619
     28 H          -0.6263    2.1432   -0.0127 H       1  UNL11       0.0658
     29 H           3.0315   -1.5834   -1.1478 H       1  UNL11       0.0628
     30 H           4.6661   -1.1610    0.5438 H       1  UNL11       0.0654
     31 H           4.5610    0.1161    3.3613 H       1  UNL11       0.2921
     32 H           2.3077    1.8616    2.2456 H       1  UNL11       0.0691
     33 H          -0.4762    1.7187    0.0961 H       1  UNL11       0.2922
     34 H          -0.5073   -1.2241   -4.3353 H       1  UNL11       0.5148
@<TRIPOS>BOND
     1     1     2    1
     2     1    22    1
     3     1    23    1
     4     1    24    1
     5     2     3   ar
     6     3     4   ar
     7     3    25    1
     8     4     5   ar
     9     4    26    1
    10     5     6   ar
    11     5    27    1
    12     6     7   ar
    13     6    28    1
    14     7     8    1
    15     7     2   ar
    16     8     9    1
    17     9    10    1
    18     9    18    2
    19    10    11   ar
    20    11    12   ar
    21    11    29    1
    22    12    13   ar
    23    12    30    1
    24    13    14    1
    25    13    15   ar
    26    14    31    1
    27    15    16   ar
    28    15    32    1
    29    16    17    1
    30    16    10   ar
    31    17    33    1
    32    18    19    1
    33    19    20   am
    34    19    34    1
    35    20    21    2
    36    20     8   am
@<TRIPOS>MOLECULE
*****
 34 36 0 0 0
SMALL
GASTEIGER

@<TRIPOS>ATOM
      1 C          -1.8265   -2.1105    0.5169 C.3     1  UNL11      -0.0359
      2 C          -2.0958   -0.6527    0.6649 C.ar    1  UNL11      -0.0050
      3 C          -2.9008   -0.2702    1.7176 C.ar    1  UNL11      -0.0550
      4 C          -3.1830    1.0595    1.9033 C.ar    1  UNL11      -0.0613
      5 C          -2.6556    1.9831    1.0335 C.ar    1  UNL11      -0.0579
      6 C          -1.8515    1.5820   -0.0152 C.ar    1  UNL11      -0.0159
      7 C          -1.5468    0.2491   -0.2313 C.ar    1  UNL11       0.1388
      8 N          -0.7431   -0.2097   -1.3251 N.am    1  UNL11      -0.0504
      9 C           0.5712   -0.3687   -1.4582 C.2     1  UNL11       0.4130
     10 C           1.6071   -0.0954   -0.4615 C.ar    1  UNL11       0.1148
     11 C           2.9214   -0.2953   -0.7502 C.ar    1  UNL11      -0.0396
     12 C           3.9278   -0.0677    0.2116 C.ar    1  UNL11      -0.0191
     13 C           3.6205    0.3655    1.4765 C.ar    1  UNL11       0.1204
     14 O           4.6068    0.5949    2.4378 O.3     1  UNL11      -0.5066
     15 C           2.3002    0.5650    1.7599 C.ar    1  UNL11       0.0222
     16 C           1.2807    0.3407    0.8077 C.ar    1  UNL11       0.1354
     17 O           0.0116    0.5888    1.2613 O.3     1  UNL11      -0.5058
     18 N           0.8426   -0.8126   -2.7330 N.2     1  UNL11       0.2263
     19 N          -0.3070   -0.9121   -3.3373 N.am    1  UNL11       0.0968
     20 C          -1.3104   -0.5597   -2.5336 C.2     1  UNL11       0.6257
     21 O          -2.5503   -0.5250   -2.7539 O.2     1  UNL11      -0.1726
     22 H          -0.8817   -2.2686   -0.0032 H       1  UNL11       0.0279
     23 H          -1.7900   -2.5810    1.5334 H       1  UNL11       0.0279
     24 H          -2.6738   -2.5907   -0.0423 H       1  UNL11       0.0279
     25 H          -3.3294   -0.9848    2.4191 H       1  UNL11       0.0621
     26 H          -3.8218    1.3749    2.7368 H       1  UNL11       0.0618
     27 H          -2.8954    3.0305    1.2038 H       1  UNL11       0.0619
     28 H          -1.4463    2.3143   -0.6869 H       1  UNL11       0.0658
     29 H           3.3108   -0.6118   -1.7045 H       1  UNL11       0.0628
     30 H           4.9679   -0.2294   -0.0254 H       1  UNL11       0.0654
     31 H           4.9120   -0.1456    3.0682 H       1  UNL11       0.2921
     32 H           2.0550    0.9110    2.7690 H       1  UNL11       0.0691
     33 H          -0.8380    0.5026    0.8056 H       1  UNL11       0.2922
     34 H          -0.5073   -1.2241   -4.3353 H       1  UNL11       0.5148
@<TRIPOS>BOND
     1     1     2    1
     2     1    22    1
     3     1    23    1
     4     1    24    1
     5     2     3   ar
     6     3     4   ar
     7     3    25    1
     8     4     5   ar
     9     4    26    1
    10     5     6   ar
    11     5    27    1
    12     6     7   ar
    13     6    28    1
    14     7     8    1
    15     7     2   ar
    16     8     9    1
    17     9    10    1
    18     9    18    2
    19    10    11   ar
    20    11    12   ar
    21    11    29    1
    22    12    13   ar
    23    12    30    1
    24    13    14    1
    25    13    15   ar
    26    14    31    1
    27    15    16   ar
    28    15    32    1
    29    16    17    1
    30    16    10   ar
    31    17    33    1
    32    18    19    1
    33    19    20   am
    34    19    34    1
    35    20    21    2
    36    20     8   am
@<TRIPOS>MOLECULE
*****
 34 36 0 0 0
SMALL
GASTEIGER

@<TRIPOS>ATOM
      1 C          -1.8265   -2.1105    0.5169 C.3     1  UNL11      -0.0359
      2 C          -2.0958   -0.6527    0.6649 C.ar    1  UNL11      -0.0050
      3 C          -2.9008   -0.2702    1.7176 C.ar    1  UNL11      -0.0550
      4 C          -3.1830    1.0595    1.9033 C.ar    1  UNL11      -0.0613
      5 C          -2.6556    1.9831    1.0335 C.ar    1  UNL11      -0.0579
      6 C          -1.8515    1.5820   -0.0152 C.ar    1  UNL11      -0.0159
      7 C          -1.5468    0.2491   -0.2313 C.ar    1  UNL11       0.1388
      8 N          -0.7431   -0.2097   -1.3251 N.am    1  UNL11      -0.0504
      9 C           0.5712   -0.3687   -1.4582 C.2     1  UNL11       0.4130
     10 C           1.6071   -0.0954   -0.4615 C.ar    1  UNL11       0.1148
     11 C           2.8545    0.2918   -0.8417 C.ar    1  UNL11      -0.0396
     12 C           3.8721    0.5264    0.1066 C.ar    1  UNL11      -0.0191
     13 C           3.6431    0.3741    1.4506 C.ar    1  UNL11       0.1204
     14 O           4.6412    0.6033    2.3997 O.3     1  UNL11      -0.5066
     15 C           2.3893   -0.0138    1.8260 C.ar    1  UNL11       0.0222
     16 C           1.3600   -0.2533    0.8882 C.ar    1  UNL11       0.1354
     17 O           0.1650   -0.6374    1.4381 O.3     1  UNL11      -0.5058
     18 N           0.8426   -0.8126   -2.7330 N.2     1  UNL11       0.2263
     19 N          -0.3070   -0.9121   -3.3373 N.am    1  UNL11       0.0968
     20 C          -1.3104   -0.5597   -2.5336 C.2     1  UNL11       0.6257
     21 O          -2.5503   -0.5250   -2.7539 O.2     1  UNL11      -0.1726
     22 H          -0.8817   -2.2686   -0.0032 H       1  UNL11       0.0279
     23 H          -1.7900   -2.5810    1.5334 H       1  UNL11       0.0279
     24 H          -2.6738   -2.5907   -0.0423 H       1  UNL11       0.0279
     25 H          -3.3294   -0.9848    2.4191 H       1  UNL11       0.0621
     26 H          -3.8218    1.3749    2.7368 H       1  UNL11       0.0618
     27 H          -2.8954    3.0305    1.2038 H       1  UNL11       0.0619
     28 H          -1.4463    2.3143   -0.6869 H       1  UNL11       0.0658
     29 H           3.1713    0.4715   -1.8566 H       1  UNL11       0.0628
     30 H           4.8591    0.8326   -0.2035 H       1  UNL11       0.0654
     31 H           5.2612   -0.1458    2.7054 H       1  UNL11       0.2921
     32 H           2.2065   -0.1350    2.8984 H       1  UNL11       0.0691
     33 H          -0.6725   -0.8617    1.0076 H       1  UNL11       0.2922
     34 H          -0.5073   -1.2241   -4.3353 H       1  UNL11       0.5148
@<TRIPOS>BOND
     1     1     2    1
     2     1    22    1
     3     1    23    1
     4     1    24    1
     5     2     3   ar
     6     3     4   ar
     7     3    25    1
     8     4     5   ar
     9     4    26    1
    10     5     6   ar
    11     5    27    1
    12     6     7   ar
    13     6    28    1
    14     7     8    1
    15     7     2   ar
    16     8     9    1
    17     9    10    1
    18     9    18    2
    19    10    11   ar
    20    11    12   ar
    21    11    29    1
    22    12    13   ar
    23    12    30    1
    24    13    14    1
    25    13    15   ar
    26    14    31    1
    27    15    16   ar
    28    15    32    1
    29    16    17    1
    30    16    10   ar
    31    17    33    1
    32    18    19    1
    33    19    20   am
    34    19    34    1
    35    20    21    2
    36    20     8   am
@<TRIPOS>MOLECULE
*****
 34 36 0 0 0
SMALL
GASTEIGER

@<TRIPOS>ATOM
      1 C          -0.7312   -1.6671    1.1357 C.3     1  UNL11      -0.0359
      2 C          -1.5704   -0.4480    0.9651 C.ar    1  UNL11      -0.0050
      3 C          -2.3475   -0.0694    2.0399 C.ar    1  UNL11      -0.0550
      4 C          -3.1407    1.0455    1.9403 C.ar    1  UNL11      -0.0613
      5 C          -3.1429    1.7622    0.7680 C.ar    1  UNL11      -0.0579
      6 C          -2.3584    1.3685   -0.2981 C.ar    1  UNL11      -0.0159
      7 C          -1.5468    0.2491   -0.2313 C.ar    1  UNL11       0.1388
      8 N          -0.7431   -0.2097   -1.3251 N.am    1  UNL11      -0.0504
      9 C           0.5712   -0.3687   -1.4582 C.2     1  UNL11       0.4130
     10 C           1.6071   -0.0954   -0.4615 C.ar    1  UNL11       0.1148
     11 C           2.9214   -0.2953   -0.7502 C.ar    1  UNL11      -0.0396
     12 C           3.9278   -0.0677    0.2116 C.ar    1  UNL11      -0.0191
     13 C           3.6205    0.3655    1.4765 C.ar    1  UNL11       0.1204
     14 O           4.6068    0.5949    2.4378 O.3     1  UNL11      -0.5066
     15 C           2.3002    0.5650    1.7599 C.ar    1  UNL11       0.0222
     16 C           1.2807    0.3407    0.8077 C.ar    1  UNL11       0.1354
     17 O           0.0116    0.5888    1.2613 O.3     1  UNL11      -0.5058
     18 N           0.8426   -0.8126   -2.7330 N.2     1  UNL11       0.2263
     19 N          -0.3070   -0.9121   -3.3373 N.am    1  UNL11       0.0968
     20 C          -1.3104   -0.5597   -2.5336 C.2     1  UNL11       0.6257
     21 O          -2.5503   -0.5250   -2.7539 O.2     1  UNL11      -0.1726
     22 H           0.1331   -1.6258    0.4728 H       1  UNL11       0.0279
     23 H          -0.3953   -1.7339    2.2029 H       1  UNL11       0.0279
     24 H          -1.3518   -2.5789    0.9241 H       1  UNL11       0.0279
     25 H          -2.3613   -0.6223    2.9784 H       1  UNL11       0.0621
     26 H          -3.7625    1.3556    2.7885 H       1  UNL11       0.0618
     27 H          -3.7810    2.6419    0.7161 H       1  UNL11       0.0619
     28 H          -2.3701    1.9377   -1.2077 H       1  UNL11       0.0658
     29 H           3.3108   -0.6118   -1.7045 H       1  UNL11       0.0628
     30 H           4.9679   -0.2294   -0.0254 H       1  UNL11       0.0654
     31 H           4.9120   -0.1456    3.0682 H       1  UNL11       0.2921
     32 H           2.0550    0.9110    2.7690 H       1  UNL11       0.0691
     33 H          -0.8380    0.5026    0.8056 H       1  UNL11       0.2922
     34 H          -0.5073   -1.2241   -4.3353 H       1  UNL11       0.5148
@<TRIPOS>BOND
     1     1     2    1
     2     1    22    1
     3     1    23    1
     4     1    24    1
     5     2     3   ar
     6     3     4   ar
     7     3    25    1
     8     4     5   ar
     9     4    26    1
    10     5     6   ar
    11     5    27    1
    12     6     7   ar
    13     6    28    1
    14     7     8    1
    15     7     2   ar
    16     8     9    1
    17     9    10    1
    18     9    18    2
    19    10    11   ar
    20    11    12   ar
    21    11    29    1
    22    12    13   ar
    23    12    30    1
    24    13    14    1
    25    13    15   ar
    26    14    31    1
    27    15    16   ar
    28    15    32    1
    29    16    17    1
    30    16    10   ar
    31    17    33    1
    32    18    19    1
    33    19    20   am
    34    19    34    1
    35    20    21    2
    36    20     8   am
@<TRIPOS>MOLECULE
*****
 34 36 0 0 0
SMALL
GASTEIGER

@<TRIPOS>ATOM
      1 C          -0.7312   -1.6671    1.1357 C.3     1  UNL11      -0.0359
      2 C          -1.5704   -0.4480    0.9651 C.ar    1  UNL11      -0.0050
      3 C          -2.3475   -0.0694    2.0399 C.ar    1  UNL11      -0.0550
      4 C          -3.1407    1.0455    1.9403 C.ar    1  UNL11      -0.0613
      5 C          -3.1429    1.7622    0.7680 C.ar    1  UNL11      -0.0579
      6 C          -2.3584    1.3685   -0.2981 C.ar    1  UNL11      -0.0159
      7 C          -1.5468    0.2491   -0.2313 C.ar    1  UNL11       0.1388
      8 N          -0.7431   -0.2097   -1.3251 N.am    1  UNL11      -0.0504
      9 C           0.5712   -0.3687   -1.4582 C.2     1  UNL11       0.4130
     10 C           1.6071   -0.0954   -0.4615 C.ar    1  UNL11       0.1148
     11 C           2.8545    0.2918   -0.8417 C.ar    1  UNL11      -0.0396
     12 C           3.8721    0.5264    0.1066 C.ar    1  UNL11      -0.0191
     13 C           3.6431    0.3741    1.4506 C.ar    1  UNL11       0.1204
     14 O           4.6412    0.6033    2.3997 O.3     1  UNL11      -0.5066
     15 C           2.3893   -0.0138    1.8260 C.ar    1  UNL11       0.0222
     16 C           1.3600   -0.2533    0.8882 C.ar    1  UNL11       0.1354
     17 O           0.1650   -0.6374    1.4381 O.3     1  UNL11      -0.5058
     18 N           0.8426   -0.8126   -2.7330 N.2     1  UNL11       0.2263
     19 N          -0.3070   -0.9121   -3.3373 N.am    1  UNL11       0.0968
     20 C          -1.3104   -0.5597   -2.5336 C.2     1  UNL11       0.6257
     21 O          -2.5503   -0.5250   -2.7539 O.2     1  UNL11      -0.1726
     22 H           0.1331   -1.6258    0.4728 H       1  UNL11       0.0279
     23 H          -0.3953   -1.7339    2.2029 H       1  UNL11       0.0279
     24 H          -1.3518   -2.5789    0.9241 H       1  UNL11       0.0279
     25 H          -2.3613   -0.6223    2.9784 H       1  UNL11       0.0621
     26 H          -3.7625    1.3556    2.7885 H       1  UNL11       0.0618
     27 H          -3.7810    2.6419    0.7161 H       1  UNL11       0.0619
     28 H          -2.3701    1.9377   -1.2077 H       1  UNL11       0.0658
     29 H           3.1713    0.4715   -1.8566 H       1  UNL11       0.0628
     30 H           4.8591    0.8326   -0.2035 H       1  UNL11       0.0654
     31 H           5.2612   -0.1458    2.7054 H       1  UNL11       0.2921
     32 H           2.2065   -0.1350    2.8984 H       1  UNL11       0.0691
     33 H          -0.6725   -0.8617    1.0076 H       1  UNL11       0.2922
     34 H          -0.5073   -1.2241   -4.3353 H       1  UNL11       0.5148
@<TRIPOS>BOND
     1     1     2    1
     2     1    22    1
     3     1    23    1
     4     1    24    1
     5     2     3   ar
     6     3     4   ar
     7     3    25    1
     8     4     5   ar
     9     4    26    1
    10     5     6   ar
    11     5    27    1
    12     6     7   ar
    13     6    28    1
    14     7     8    1
    15     7     2   ar
    16     8     9    1
    17     9    10    1
    18     9    18    2
    19    10    11   ar
    20    11    12   ar
    21    11    29    1
    22    12    13   ar
    23    12    30    1
    24    13    14    1
    25    13    15   ar
    26    14    31    1
    27    15    16   ar
    28    15    32    1
    29    16    17    1
    30    16    10   ar
    31    17    33    1
    32    18    19    1
    33    19    20   am
    34    19    34    1
    35    20    21    2
    36    20     8   am
@<TRIPOS>MOLECULE
*****
 34 36 0 0 0
SMALL
GASTEIGER

@<TRIPOS>ATOM
      1 C          -1.2614    2.5884   -1.0389 C.3     1  UNL11      -0.0359
      2 C          -1.7989    1.6003   -0.0620 C.ar    1  UNL11      -0.0050
      3 C          -2.5401    2.1003    0.9883 C.ar    1  UNL11      -0.0550
      4 C          -3.0604    1.2370    1.9189 C.ar    1  UNL11      -0.0613
      5 C          -2.8306   -0.1108    1.7831 C.ar    1  UNL11      -0.0579
      6 C          -2.0861   -0.5939    0.7251 C.ar    1  UNL11      -0.0159
      7 C          -1.5468    0.2491   -0.2313 C.ar    1  UNL11       0.1388
      8 N          -0.7431   -0.2097   -1.3251 N.am    1  UNL11      -0.0504
      9 C           0.5712   -0.3687   -1.4582 C.2     1  UNL11       0.4130
     10 C           1.6071   -0.0954   -0.4615 C.ar    1  UNL11       0.1148
     11 C           2.9214   -0.2953   -0.7502 C.ar    1  UNL11      -0.0396
     12 C           3.9278   -0.0677    0.2116 C.ar    1  UNL11      -0.0191
     13 C           3.6205    0.3655    1.4765 C.ar    1  UNL11       0.1204
     14 O           4.6068    0.5949    2.4378 O.3     1  UNL11      -0.5066
     15 C           2.3002    0.5650    1.7599 C.ar    1  UNL11       0.0222
     16 C           1.2807    0.3407    0.8077 C.ar    1  UNL11       0.1354
     17 O           0.0116    0.5888    1.2613 O.3     1  UNL11      -0.5058
     18 N           0.8426   -0.8126   -2.7330 N.2     1  UNL11       0.2263
     19 N          -0.3070   -0.9121   -3.3373 N.am    1  UNL11       0.0968
     20 C          -1.3104   -0.5597   -2.5336 C.2     1  UNL11       0.6257
     21 O          -2.5503   -0.5250   -2.7539 O.2     1  UNL11      -0.1726
     22 H          -1.1088    2.1150   -2.0088 H       1  UNL11       0.0279
     23 H          -1.9849    3.4389   -1.1349 H       1  UNL11       0.0279
     24 H          -0.2983    3.0129   -0.6472 H       1  UNL11       0.0279
     25 H          -2.7348    3.1645    1.1156 H       1  UNL11       0.0621
     26 H          -3.6511    1.6236    2.7579 H       1  UNL11       0.0618
     27 H          -3.2547   -0.7729    2.5351 H       1  UNL11       0.0619
     28 H          -1.9145   -1.6491    0.6315 H       1  UNL11       0.0658
     29 H           3.3108   -0.6118   -1.7045 H       1  UNL11       0.0628
     30 H           4.9679   -0.2294   -0.0254 H       1  UNL11       0.0654
     31 H           4.9120   -0.1456    3.0682 H       1  UNL11       0.2921
     32 H           2.0550    0.9110    2.7690 H       1  UNL11       0.0691
     33 H          -0.8380    0.5026    0.8056 H       1  UNL11       0.2922
     34 H          -0.5073   -1.2241   -4.3353 H       1  UNL11       0.5148
@<TRIPOS>BOND
     1     1     2    1
     2     1    22    1
     3     1    23    1
     4     1    24    1
     5     2     3   ar
     6     3     4   ar
     7     3    25    1
     8     4     5   ar
     9     4    26    1
    10     5     6   ar
    11     5    27    1
    12     6     7   ar
    13     6    28    1
    14     7     8    1
    15     7     2   ar
    16     8     9    1
    17     9    10    1
    18     9    18    2
    19    10    11   ar
    20    11    12   ar
    21    11    29    1
    22    12    13   ar
    23    12    30    1
    24    13    14    1
    25    13    15   ar
    26    14    31    1
    27    15    16   ar
    28    15    32    1
    29    16    17    1
    30    16    10   ar
    31    17    33    1
    32    18    19    1
    33    19    20   am
    34    19    34    1
    35    20    21    2
    36    20     8   am
@<TRIPOS>MOLECULE
*****
 34 36 0 0 0
SMALL
GASTEIGER

@<TRIPOS>ATOM
      1 C          -1.2614    2.5884   -1.0389 C.3     1  UNL11      -0.0359
      2 C          -1.7989    1.6003   -0.0620 C.ar    1  UNL11      -0.0050
      3 C          -2.5401    2.1003    0.9883 C.ar    1  UNL11      -0.0550
      4 C          -3.0604    1.2370    1.9189 C.ar    1  UNL11      -0.0613
      5 C          -2.8306   -0.1108    1.7831 C.ar    1  UNL11      -0.0579
      6 C          -2.0861   -0.5939    0.7251 C.ar    1  UNL11      -0.0159
      7 C          -1.5468    0.2491   -0.2313 C.ar    1  UNL11       0.1388
      8 N          -0.7431   -0.2097   -1.3251 N.am    1  UNL11      -0.0504
      9 C           0.5712   -0.3687   -1.4582 C.2     1  UNL11       0.4130
     10 C           1.6071   -0.0954   -0.4615 C.ar    1  UNL11       0.1148
     11 C           2.8545    0.2918   -0.8417 C.ar    1  UNL11      -0.0396
     12 C           3.8721    0.5264    0.1066 C.ar    1  UNL11      -0.0191
     13 C           3.6431    0.3741    1.4506 C.ar    1  UNL11       0.1204
     14 O           4.6412    0.6033    2.3997 O.3     1  UNL11      -0.5066
     15 C           2.3893   -0.0138    1.8260 C.ar    1  UNL11       0.0222
     16 C           1.3600   -0.2533    0.8882 C.ar    1  UNL11       0.1354
     17 O           0.1650   -0.6374    1.4381 O.3     1  UNL11      -0.5058
     18 N           0.8426   -0.8126   -2.7330 N.2     1  UNL11       0.2263
     19 N          -0.3070   -0.9121   -3.3373 N.am    1  UNL11       0.0968
     20 C          -1.3104   -0.5597   -2.5336 C.2     1  UNL11       0.6257
     21 O          -2.5503   -0.5250   -2.7539 O.2     1  UNL11      -0.1726
     22 H          -1.1088    2.1150   -2.0088 H       1  UNL11       0.0279
     23 H          -1.9849    3.4389   -1.1349 H       1  UNL11       0.0279
     24 H          -0.2983    3.0129   -0.6472 H       1  UNL11       0.0279
     25 H          -2.7348    3.1645    1.1156 H       1  UNL11       0.0621
     26 H          -3.6511    1.6236    2.7579 H       1  UNL11       0.0618
     27 H          -3.2547   -0.7729    2.5351 H       1  UNL11       0.0619
     28 H          -1.9145   -1.6491    0.6315 H       1  UNL11       0.0658
     29 H           3.1713    0.4715   -1.8566 H       1  UNL11       0.0628
     30 H           4.8591    0.8326   -0.2035 H       1  UNL11       0.0654
     31 H           5.2612   -0.1458    2.7054 H       1  UNL11       0.2921
     32 H           2.2065   -0.1350    2.8984 H       1  UNL11       0.0691
     33 H          -0.6725   -0.8617    1.0076 H       1  UNL11       0.2922
     34 H          -0.5073   -1.2241   -4.3353 H       1  UNL11       0.5148
@<TRIPOS>BOND
     1     1     2    1
     2     1    22    1
     3     1    23    1
     4     1    24    1
     5     2     3   ar
     6     3     4   ar
     7     3    25    1
     8     4     5   ar
     9     4    26    1
    10     5     6   ar
    11     5    27    1
    12     6     7   ar
    13     6    28    1
    14     7     8    1
    15     7     2   ar
    16     8     9    1
    17     9    10    1
    18     9    18    2
    19    10    11   ar
    20    11    12   ar
    21    11    29    1
    22    12    13   ar
    23    12    30    1
    24    13    14    1
    25    13    15   ar
    26    14    31    1
    27    15    16   ar
    28    15    32    1
    29    16    17    1
    30    16    10   ar
    31    17    33    1
    32    18    19    1
    33    19    20   am
    34    19    34    1
    35    20    21    2
    36    20     8   am
@<TRIPOS>MOLECULE
*****
 34 36 0 0 0
SMALL
GASTEIGER

@<TRIPOS>ATOM
      1 C          -2.3080    2.1647   -1.6302 C.3     1  UNL11      -0.0359
      2 C          -2.3010    1.4046   -0.3488 C.ar    1  UNL11      -0.0050
      3 C          -3.0688    1.9085    0.6803 C.ar    1  UNL11      -0.0550
      4 C          -3.1009    1.2504    1.8836 C.ar    1  UNL11      -0.0613
      5 C          -2.3649    0.1003    2.0368 C.ar    1  UNL11      -0.0579
      6 C          -1.6016   -0.3898    0.9954 C.ar    1  UNL11      -0.0159
      7 C          -1.5468    0.2491   -0.2313 C.ar    1  UNL11       0.1388
      8 N          -0.7431   -0.2097   -1.3251 N.am    1  UNL11      -0.0504
      9 C           0.5712   -0.3687   -1.4582 C.2     1  UNL11       0.4130
     10 C           1.6071   -0.0954   -0.4615 C.ar    1  UNL11       0.1148
     11 C           2.8545    0.2918   -0.8417 C.ar    1  UNL11      -0.0396
     12 C           3.8721    0.5264    0.1066 C.ar    1  UNL11      -0.0191
     13 C           3.6431    0.3741    1.4506 C.ar    1  UNL11       0.1204
     14 O           4.6412    0.6033    2.3997 O.3     1  UNL11      -0.5066
     15 C           2.3893   -0.0138    1.8260 C.ar    1  UNL11       0.0222
     16 C           1.3600   -0.2533    0.8882 C.ar    1  UNL11       0.1354
     17 O           0.1650   -0.6374    1.4381 O.3     1  UNL11      -0.5058
     18 N           0.8426   -0.8126   -2.7330 N.2     1  UNL11       0.2263
     19 N          -0.3070   -0.9121   -3.3373 N.am    1  UNL11       0.0968
     20 C          -1.3104   -0.5597   -2.5336 C.2     1  UNL11       0.6257
     21 O          -2.5503   -0.5250   -2.7539 O.2     1  UNL11      -0.1726
     22 H          -2.0785    1.5008   -2.4637 H       1  UNL11       0.0279
     23 H          -3.3177    2.6293   -1.7746 H       1  UNL11       0.0279
     24 H          -1.5615    3.0016   -1.5707 H       1  UNL11       0.0279
     25 H          -3.6599    2.8181    0.5812 H       1  UNL11       0.0621
     26 H          -3.7078    1.6420    2.7086 H       1  UNL11       0.0618
     27 H          -2.4084   -0.4015    3.0012 H       1  UNL11       0.0619
     28 H          -1.0318   -1.2892    1.1292 H       1  UNL11       0.0658
     29 H           3.1713    0.4715   -1.8566 H       1  UNL11       0.0628
     30 H           4.8591    0.8326   -0.2035 H       1  UNL11       0.0654
     31 H           5.2612   -0.1458    2.7054 H       1  UNL11       0.2921
     32 H           2.2065   -0.1350    2.8984 H       1  UNL11       0.0691
     33 H          -0.6725   -0.8617    1.0076 H       1  UNL11       0.2922
     34 H          -0.5073   -1.2241   -4.3353 H       1  UNL11       0.5148
@<TRIPOS>BOND
     1     1     2    1
     2     1    22    1
     3     1    23    1
     4     1    24    1
     5     2     3   ar
     6     3     4   ar
     7     3    25    1
     8     4     5   ar
     9     4    26    1
    10     5     6   ar
    11     5    27    1
    12     6     7   ar
    13     6    28    1
    14     7     8    1
    15     7     2   ar
    16     8     9    1
    17     9    10    1
    18     9    18    2
    19    10    11   ar
    20    11    12   ar
    21    11    29    1
    22    12    13   ar
    23    12    30    1
    24    13    14    1
    25    13    15   ar
    26    14    31    1
    27    15    16   ar
    28    15    32    1
    29    16    17    1
    30    16    10   ar
    31    17    33    1
    32    18    19    1
    33    19    20   am
    34    19    34    1
    35    20    21    2
    36    20     8   am
@<TRIPOS>MOLECULE
*****
 34 36 0 0 0
SMALL
GASTEIGER

@<TRIPOS>ATOM
      1 C          -2.3080    2.1647   -1.6302 C.3     1  UNL11      -0.0359
      2 C          -2.3010    1.4046   -0.3488 C.ar    1  UNL11      -0.0050
      3 C          -3.0688    1.9085    0.6803 C.ar    1  UNL11      -0.0550
      4 C          -3.1009    1.2504    1.8836 C.ar    1  UNL11      -0.0613
      5 C          -2.3649    0.1003    2.0368 C.ar    1  UNL11      -0.0579
      6 C          -1.6016   -0.3898    0.9954 C.ar    1  UNL11      -0.0159
      7 C          -1.5468    0.2491   -0.2313 C.ar    1  UNL11       0.1388
      8 N          -0.7431   -0.2097   -1.3251 N.am    1  UNL11      -0.0504
      9 C           0.5712   -0.3687   -1.4582 C.2     1  UNL11       0.4130
     10 C           1.6071   -0.0954   -0.4615 C.ar    1  UNL11       0.1148
     11 C           2.9214   -0.2953   -0.7502 C.ar    1  UNL11      -0.0396
     12 C           3.9278   -0.0677    0.2116 C.ar    1  UNL11      -0.0191
     13 C           3.6205    0.3655    1.4765 C.ar    1  UNL11       0.1204
     14 O           4.6068    0.5949    2.4378 O.3     1  UNL11      -0.5066
     15 C           2.3002    0.5650    1.7599 C.ar    1  UNL11       0.0222
     16 C           1.2807    0.3407    0.8077 C.ar    1  UNL11       0.1354
     17 O           0.0116    0.5888    1.2613 O.3     1  UNL11      -0.5058
     18 N           0.8426   -0.8126   -2.7330 N.2     1  UNL11       0.2263
     19 N          -0.3070   -0.9121   -3.3373 N.am    1  UNL11       0.0968
     20 C          -1.3104   -0.5597   -2.5336 C.2     1  UNL11       0.6257
     21 O          -2.5503   -0.5250   -2.7539 O.2     1  UNL11      -0.1726
     22 H          -2.0785    1.5008   -2.4637 H       1  UNL11       0.0279
     23 H          -3.3177    2.6293   -1.7746 H       1  UNL11       0.0279
     24 H          -1.5615    3.0016   -1.5707 H       1  UNL11       0.0279
     25 H          -3.6599    2.8181    0.5812 H       1  UNL11       0.0621
     26 H          -3.7078    1.6420    2.7086 H       1  UNL11       0.0618
     27 H          -2.4084   -0.4015    3.0012 H       1  UNL11       0.0619
     28 H          -1.0318   -1.2892    1.1292 H       1  UNL11       0.0658
     29 H           3.3108   -0.6118   -1.7045 H       1  UNL11       0.0628
     30 H           4.9679   -0.2294   -0.0254 H       1  UNL11       0.0654
     31 H           4.9120   -0.1456    3.0682 H       1  UNL11       0.2921
     32 H           2.0550    0.9110    2.7690 H       1  UNL11       0.0691
     33 H          -0.8380    0.5026    0.8056 H       1  UNL11       0.2922
     34 H          -0.5073   -1.2241   -4.3353 H       1  UNL11       0.5148
@<TRIPOS>BOND
     1     1     2    1
     2     1    22    1
     3     1    23    1
     4     1    24    1
     5     2     3   ar
     6     3     4   ar
     7     3    25    1
     8     4     5   ar
     9     4    26    1
    10     5     6   ar
    11     5    27    1
    12     6     7   ar
    13     6    28    1
    14     7     8    1
    15     7     2   ar
    16     8     9    1
    17     9    10    1
    18     9    18    2
    19    10    11   ar
    20    11    12   ar
    21    11    29    1
    22    12    13   ar
    23    12    30    1
    24    13    14    1
    25    13    15   ar
    26    14    31    1
    27    15    16   ar
    28    15    32    1
    29    16    17    1
    30    16    10   ar
    31    17    33    1
    32    18    19    1
    33    19    20   am
    34    19    34    1
    35    20    21    2
    36    20     8   am
@<TRIPOS>MOLECULE
*****
 34 36 0 0 0
SMALL
GASTEIGER

@<TRIPOS>ATOM
      1 C          -2.7974   -1.9048   -0.2828 C.3     1  UNL11      -0.0359
      2 C          -2.5581   -0.5466    0.2807 C.ar    1  UNL11      -0.0050
      3 C          -3.3811   -0.1444    1.3119 C.ar    1  UNL11      -0.0550
      4 C          -3.2070    1.0966    1.8701 C.ar    1  UNL11      -0.0613
      5 C          -2.2133    1.9137    1.3875 C.ar    1  UNL11      -0.0579
      6 C          -1.3985    1.4946    0.3543 C.ar    1  UNL11      -0.0159
      7 C          -1.5468    0.2491   -0.2313 C.ar    1  UNL11       0.1388
      8 N          -0.7431   -0.2097   -1.3251 N.am    1  UNL11      -0.0504
      9 C           0.5712   -0.3687   -1.4582 C.2     1  UNL11       0.4130
     10 C           1.6071   -0.0954   -0.4615 C.ar    1  UNL11       0.1148
     11 C           2.9214   -0.2953   -0.7502 C.ar    1  UNL11      -0.0396
     12 C           3.9278   -0.0677    0.2116 C.ar    1  UNL11      -0.0191
     13 C           3.6205    0.3655    1.4765 C.ar    1  UNL11       0.1204
     14 O           4.6068    0.5949    2.4378 O.3     1  UNL11      -0.5066
     15 C           2.3002    0.5650    1.7599 C.ar    1  UNL11       0.0222
     16 C           1.2807    0.3407    0.8077 C.ar    1  UNL11       0.1354
     17 O           0.0116    0.5888    1.2613 O.3     1  UNL11      -0.5058
     18 N           0.8426   -0.8126   -2.7330 N.2     1  UNL11       0.2263
     19 N          -0.3070   -0.9121   -3.3373 N.am    1  UNL11       0.0968
     20 C          -1.3104   -0.5597   -2.5336 C.2     1  UNL11       0.6257
     21 O          -2.5503   -0.5250   -2.7539 O.2     1  UNL11      -0.1726
     22 H          -1.8818   -2.2956   -0.7268 H       1  UNL11       0.0279
     23 H          -3.1488   -2.5842    0.5363 H       1  UNL11       0.0279
     24 H          -3.6188   -1.8513   -1.0468 H       1  UNL11       0.0279
     25 H          -4.1748   -0.7754    1.7101 H       1  UNL11       0.0621
     26 H          -3.8556    1.4266    2.6903 H       1  UNL11       0.0618
     27 H          -2.0972    2.8925    1.8482 H       1  UNL11       0.0619
     28 H          -0.6263    2.1432   -0.0127 H       1  UNL11       0.0658
     29 H           3.3108   -0.6118   -1.7045 H       1  UNL11       0.0628
     30 H           4.9679   -0.2294   -0.0254 H       1  UNL11       0.0654
     31 H           4.9120   -0.1456    3.0682 H       1  UNL11       0.2921
     32 H           2.0550    0.9110    2.7690 H       1  UNL11       0.0691
     33 H          -0.8380    0.5026    0.8056 H       1  UNL11       0.2922
     34 H          -0.5073   -1.2241   -4.3353 H       1  UNL11       0.5148
@<TRIPOS>BOND
     1     1     2    1
     2     1    22    1
     3     1    23    1
     4     1    24    1
     5     2     3   ar
     6     3     4   ar
     7     3    25    1
     8     4     5   ar
     9     4    26    1
    10     5     6   ar
    11     5    27    1
    12     6     7   ar
    13     6    28    1
    14     7     8    1
    15     7     2   ar
    16     8     9    1
    17     9    10    1
    18     9    18    2
    19    10    11   ar
    20    11    12   ar
    21    11    29    1
    22    12    13   ar
    23    12    30    1
    24    13    14    1
    25    13    15   ar
    26    14    31    1
    27    15    16   ar
    28    15    32    1
    29    16    17    1
    30    16    10   ar
    31    17    33    1
    32    18    19    1
    33    19    20   am
    34    19    34    1
    35    20    21    2
    36    20     8   am
@<TRIPOS>MOLECULE
*****
 34 36 0 0 0
SMALL
GASTEIGER

@<TRIPOS>ATOM
      1 C          -2.7974   -1.9048   -0.2828 C.3     1  UNL11      -0.0359
      2 C          -2.5581   -0.5466    0.2807 C.ar    1  UNL11      -0.0050
      3 C          -3.3811   -0.1444    1.3119 C.ar    1  UNL11      -0.0550
      4 C          -3.2070    1.0966    1.8701 C.ar    1  UNL11      -0.0613
      5 C          -2.2133    1.9137    1.3875 C.ar    1  UNL11      -0.0579
      6 C          -1.3985    1.4946    0.3543 C.ar    1  UNL11      -0.0159
      7 C          -1.5468    0.2491   -0.2313 C.ar    1  UNL11       0.1388
      8 N          -0.7431   -0.2097   -1.3251 N.am    1  UNL11      -0.0504
      9 C           0.5712   -0.3687   -1.4582 C.2     1  UNL11       0.4130
     10 C           1.6071   -0.0954   -0.4615 C.ar    1  UNL11       0.1148
     11 C           2.8545    0.2918   -0.8417 C.ar    1  UNL11      -0.0396
     12 C           3.8721    0.5264    0.1066 C.ar    1  UNL11      -0.0191
     13 C           3.6431    0.3741    1.4506 C.ar    1  UNL11       0.1204
     14 O           4.6412    0.6033    2.3997 O.3     1  UNL11      -0.5066
     15 C           2.3893   -0.0138    1.8260 C.ar    1  UNL11       0.0222
     16 C           1.3600   -0.2533    0.8882 C.ar    1  UNL11       0.1354
     17 O           0.1650   -0.6374    1.4381 O.3     1  UNL11      -0.5058
     18 N           0.8426   -0.8126   -2.7330 N.2     1  UNL11       0.2263
     19 N          -0.3070   -0.9121   -3.3373 N.am    1  UNL11       0.0968
     20 C          -1.3104   -0.5597   -2.5336 C.2     1  UNL11       0.6257
     21 O          -2.5503   -0.5250   -2.7539 O.2     1  UNL11      -0.1726
     22 H          -1.8818   -2.2956   -0.7268 H       1  UNL11       0.0279
     23 H          -3.1488   -2.5842    0.5363 H       1  UNL11       0.0279
     24 H          -3.6188   -1.8513   -1.0468 H       1  UNL11       0.0279
     25 H          -4.1748   -0.7754    1.7101 H       1  UNL11       0.0621
     26 H          -3.8556    1.4266    2.6903 H       1  UNL11       0.0618
     27 H          -2.0972    2.8925    1.8482 H       1  UNL11       0.0619
     28 H          -0.6263    2.1432   -0.0127 H       1  UNL11       0.0658
     29 H           3.1713    0.4715   -1.8566 H       1  UNL11       0.0628
     30 H           4.8591    0.8326   -0.2035 H       1  UNL11       0.0654
     31 H           5.2612   -0.1458    2.7054 H       1  UNL11       0.2921
     32 H           2.2065   -0.1350    2.8984 H       1  UNL11       0.0691
     33 H          -0.6725   -0.8617    1.0076 H       1  UNL11       0.2922
     34 H          -0.5073   -1.2241   -4.3353 H       1  UNL11       0.5148
@<TRIPOS>BOND
     1     1     2    1
     2     1    22    1
     3     1    23    1
     4     1    24    1
     5     2     3   ar
     6     3     4   ar
     7     3    25    1
     8     4     5   ar
     9     4    26    1
    10     5     6   ar
    11     5    27    1
    12     6     7   ar
    13     6    28    1
    14     7     8    1
    15     7     2   ar
    16     8     9    1
    17     9    10    1
    18     9    18    2
    19    10    11   ar
    20    11    12   ar
    21    11    29    1
    22    12    13   ar
    23    12    30    1
    24    13    14    1
    25    13    15   ar
    26    14    31    1
    27    15    16   ar
    28    15    32    1
    29    16    17    1
    30    16    10   ar
    31    17    33    1
    32    18    19    1
    33    19    20   am
    34    19    34    1
    35    20    21    2
    36    20     8   am
@<TRIPOS>MOLECULE
*****
 34 36 0 0 0
SMALL
GASTEIGER

@<TRIPOS>ATOM
      1 C          -0.2854    2.3973   -0.2416 C.3     1  UNL11      -0.0359
      2 C          -1.3342    1.5011    0.3211 C.ar    1  UNL11      -0.0050
      3 C          -2.0570    1.9819    1.3929 C.ar    1  UNL11      -0.0550
      4 C          -3.0359    1.2003    1.9523 C.ar    1  UNL11      -0.0613
      5 C          -3.2749   -0.0480    1.4304 C.ar    1  UNL11      -0.0579
      6 C          -2.5413   -0.5133    0.3568 C.ar    1  UNL11      -0.0159
      7 C          -1.5468    0.2491   -0.2313 C.ar    1  UNL11       0.1388
      8 N          -0.7431   -0.2097   -1.3251 N.am    1  UNL11      -0.0504
      9 C           0.5712   -0.3687   -1.4582 C.2     1  UNL11       0.4130
     10 C           1.6071   -0.0954   -0.4615 C.ar    1  UNL11       0.1148
     11 C           2.9214   -0.2953   -0.7502 C.ar    1  UNL11      -0.0396
     12 C           3.9278   -0.0677    0.2116 C.ar    1  UNL11      -0.0191
     13 C           3.6205    0.3655    1.4765 C.ar    1  UNL11       0.1204
     14 O           4.6068    0.5949    2.4378 O.3     1  UNL11      -0.5066
     15 C           2.3002    0.5650    1.7599 C.ar    1  UNL11       0.0222
     16 C           1.2807    0.3407    0.8077 C.ar    1  UNL11       0.1354
     17 O           0.0116    0.5888    1.2613 O.3     1  UNL11      -0.5058
     18 N           0.8426   -0.8126   -2.7330 N.2     1  UNL11       0.2263
     19 N          -0.3070   -0.9121   -3.3373 N.am    1  UNL11       0.0968
     20 C          -1.3104   -0.5597   -2.5336 C.2     1  UNL11       0.6257
     21 O          -2.5503   -0.5250   -2.7539 O.2     1  UNL11      -0.1726
     22 H          -0.1061    2.1564   -1.2895 H       1  UNL11       0.0279
     23 H          -0.6223    3.4617   -0.1432 H       1  UNL11       0.0279
     24 H           0.6576    2.2894    0.3586 H       1  UNL11       0.0279
     25 H          -1.8847    2.9679    1.8227 H       1  UNL11       0.0621
     26 H          -3.6167    1.5725    2.8047 H       1  UNL11       0.0618
     27 H          -4.0567   -0.6468    1.8930 H       1  UNL11       0.0619
     28 H          -2.7387   -1.4903   -0.0407 H       1  UNL11       0.0658
     29 H           3.3108   -0.6118   -1.7045 H       1  UNL11       0.0628
     30 H           4.9679   -0.2294   -0.0254 H       1  UNL11       0.0654
     31 H           4.9120   -0.1456    3.0682 H       1  UNL11       0.2921
     32 H           2.0550    0.9110    2.7690 H       1  UNL11       0.0691
     33 H          -0.8380    0.5026    0.8056 H       1  UNL11       0.2922
     34 H          -0.5073   -1.2241   -4.3353 H       1  UNL11       0.5148
@<TRIPOS>BOND
     1     1     2    1
     2     1    22    1
     3     1    23    1
     4     1    24    1
     5     2     3   ar
     6     3     4   ar
     7     3    25    1
     8     4     5   ar
     9     4    26    1
    10     5     6   ar
    11     5    27    1
    12     6     7   ar
    13     6    28    1
    14     7     8    1
    15     7     2   ar
    16     8     9    1
    17     9    10    1
    18     9    18    2
    19    10    11   ar
    20    11    12   ar
    21    11    29    1
    22    12    13   ar
    23    12    30    1
    24    13    14    1
    25    13    15   ar
    26    14    31    1
    27    15    16   ar
    28    15    32    1
    29    16    17    1
    30    16    10   ar
    31    17    33    1
    32    18    19    1
    33    19    20   am
    34    19    34    1
    35    20    21    2
    36    20     8   am
@<TRIPOS>MOLECULE
*****
 34 36 0 0 0
SMALL
GASTEIGER

@<TRIPOS>ATOM
      1 C          -0.2854    2.3973   -0.2416 C.3     1  UNL11      -0.0359
      2 C          -1.3342    1.5011    0.3211 C.ar    1  UNL11      -0.0050
      3 C          -2.0570    1.9819    1.3929 C.ar    1  UNL11      -0.0550
      4 C          -3.0359    1.2003    1.9523 C.ar    1  UNL11      -0.0613
      5 C          -3.2749   -0.0480    1.4304 C.ar    1  UNL11      -0.0579
      6 C          -2.5413   -0.5133    0.3568 C.ar    1  UNL11      -0.0159
      7 C          -1.5468    0.2491   -0.2313 C.ar    1  UNL11       0.1388
      8 N          -0.7431   -0.2097   -1.3251 N.am    1  UNL11      -0.0504
      9 C           0.5712   -0.3687   -1.4582 C.2     1  UNL11       0.4130
     10 C           1.6071   -0.0954   -0.4615 C.ar    1  UNL11       0.1148
     11 C           2.8545    0.2918   -0.8417 C.ar    1  UNL11      -0.0396
     12 C           3.8721    0.5264    0.1066 C.ar    1  UNL11      -0.0191
     13 C           3.6431    0.3741    1.4506 C.ar    1  UNL11       0.1204
     14 O           4.6412    0.6033    2.3997 O.3     1  UNL11      -0.5066
     15 C           2.3893   -0.0138    1.8260 C.ar    1  UNL11       0.0222
     16 C           1.3600   -0.2533    0.8882 C.ar    1  UNL11       0.1354
     17 O           0.1650   -0.6374    1.4381 O.3     1  UNL11      -0.5058
     18 N           0.8426   -0.8126   -2.7330 N.2     1  UNL11       0.2263
     19 N          -0.3070   -0.9121   -3.3373 N.am    1  UNL11       0.0968
     20 C          -1.3104   -0.5597   -2.5336 C.2     1  UNL11       0.6257
     21 O          -2.5503   -0.5250   -2.7539 O.2     1  UNL11      -0.1726
     22 H          -0.1061    2.1564   -1.2895 H       1  UNL11       0.0279
     23 H          -0.6223    3.4617   -0.1432 H       1  UNL11       0.0279
     24 H           0.6576    2.2894    0.3586 H       1  UNL11       0.0279
     25 H          -1.8847    2.9679    1.8227 H       1  UNL11       0.0621
     26 H          -3.6167    1.5725    2.8047 H       1  UNL11       0.0618
     27 H          -4.0567   -0.6468    1.8930 H       1  UNL11       0.0619
     28 H          -2.7387   -1.4903   -0.0407 H       1  UNL11       0.0658
     29 H           3.1713    0.4715   -1.8566 H       1  UNL11       0.0628
     30 H           4.8591    0.8326   -0.2035 H       1  UNL11       0.0654
     31 H           5.2612   -0.1458    2.7054 H       1  UNL11       0.2921
     32 H           2.2065   -0.1350    2.8984 H       1  UNL11       0.0691
     33 H          -0.6725   -0.8617    1.0076 H       1  UNL11       0.2922
     34 H          -0.5073   -1.2241   -4.3353 H       1  UNL11       0.5148
@<TRIPOS>BOND
     1     1     2    1
     2     1    22    1
     3     1    23    1
     4     1    24    1
     5     2     3   ar
     6     3     4   ar
     7     3    25    1
     8     4     5   ar
     9     4    26    1
    10     5     6   ar
    11     5    27    1
    12     6     7   ar
    13     6    28    1
    14     7     8    1
    15     7     2   ar
    16     8     9    1
    17     9    10    1
    18     9    18    2
    19    10    11   ar
    20    11    12   ar
    21    11    29    1
    22    12    13   ar
    23    12    30    1
    24    13    14    1
    25    13    15   ar
    26    14    31    1
    27    15    16   ar
    28    15    32    1
    29    16    17    1
    30    16    10   ar
    31    17    33    1
    32    18    19    1
    33    19    20   am
    34    19    34    1
    35    20    21    2
    36    20     8   am
@<TRIPOS>MOLECULE
*****
 34 36 0 0 0
SMALL
GASTEIGER

@<TRIPOS>ATOM
      1 C          -1.2614    2.5884   -1.0389 C.3     1  UNL11      -0.0359
      2 C          -1.7989    1.6003   -0.0620 C.ar    1  UNL11      -0.0050
      3 C          -2.5401    2.1003    0.9883 C.ar    1  UNL11      -0.0550
      4 C          -3.0604    1.2370    1.9189 C.ar    1  UNL11      -0.0613
      5 C          -2.8306   -0.1108    1.7831 C.ar    1  UNL11      -0.0579
      6 C          -2.0861   -0.5939    0.7251 C.ar    1  UNL11      -0.0159
      7 C          -1.5468    0.2491   -0.2313 C.ar    1  UNL11       0.1388
      8 N          -0.7431   -0.2097   -1.3251 N.am    1  UNL11      -0.0504
      9 C           0.5712   -0.3687   -1.4582 C.2     1  UNL11       0.4130
     10 C           1.6071   -0.0954   -0.4615 C.ar    1  UNL11       0.1148
     11 C           1.3417   -0.2086    0.8679 C.ar    1  UNL11      -0.0396
     12 C           2.3209    0.0837    1.8403 C.ar    1  UNL11      -0.0191
     13 C           3.5805    0.4932    1.4830 C.ar    1  UNL11       0.1204
     14 O           4.5590    0.7855    2.4351 O.3     1  UNL11      -0.5066
     15 C           3.8411    0.6042    0.1477 C.ar    1  UNL11       0.0222
     16 C           2.8708    0.3157   -0.8381 C.ar    1  UNL11       0.1354
     17 O           3.3012    0.4821   -2.1284 O.3     1  UNL11      -0.5058
     18 N           0.8426   -0.8126   -2.7330 N.2     1  UNL11       0.2263
     19 N          -0.3070   -0.9121   -3.3373 N.am    1  UNL11       0.0968
     20 C          -1.3104   -0.5597   -2.5336 C.2     1  UNL11       0.6257
     21 O          -2.5503   -0.5250   -2.7539 O.2     1  UNL11      -0.1726
     22 H          -1.1088    2.1150   -2.0088 H       1  UNL11       0.0279
     23 H          -1.9849    3.4389   -1.1349 H       1  UNL11       0.0279
     24 H          -0.2983    3.0129   -0.6472 H       1  UNL11       0.0279
     25 H          -2.7348    3.1645    1.1156 H       1  UNL11       0.0621
     26 H          -3.6511    1.6236    2.7579 H       1  UNL11       0.0618
     27 H          -3.2547   -0.7729    2.5351 H       1  UNL11       0.0619
     28 H          -1.9145   -1.6491    0.6315 H       1  UNL11       0.0658
     29 H           0.4074   -0.5387    1.2930 H       1  UNL11       0.0628
     30 H           2.1018   -0.0080    2.8928 H       1  UNL11       0.0654
     31 H           4.6642    1.7265    2.8125 H       1  UNL11       0.2921
     32 H           4.8462    0.9305   -0.1374 H       1  UNL11       0.0691
     33 H           2.8256    0.3564   -2.9621 H       1  UNL11       0.2922
     34 H          -0.5073   -1.2241   -4.3353 H       1  UNL11       0.5148
@<TRIPOS>BOND
     1     1     2    1
     2     1    22    1
     3     1    23    1
     4     1    24    1
     5     2     3   ar
     6     3     4   ar
     7     3    25    1
     8     4     5   ar
     9     4    26    1
    10     5     6   ar
    11     5    27    1
    12     6     7   ar
    13     6    28    1
    14     7     8    1
    15     7     2   ar
    16     8     9    1
    17     9    10    1
    18     9    18    2
    19    10    11   ar
    20    11    12   ar
    21    11    29    1
    22    12    13   ar
    23    12    30    1
    24    13    14    1
    25    13    15   ar
    26    14    31    1
    27    15    16   ar
    28    15    32    1
    29    16    17    1
    30    16    10   ar
    31    17    33    1
    32    18    19    1
    33    19    20   am
    34    19    34    1
    35    20    21    2
    36    20     8   am
@<TRIPOS>MOLECULE
*****
 34 36 0 0 0
SMALL
GASTEIGER

@<TRIPOS>ATOM
      1 C          -1.8265   -2.1105    0.5169 C.3     1  UNL11      -0.0359
      2 C          -2.0958   -0.6527    0.6649 C.ar    1  UNL11      -0.0050
      3 C          -2.9008   -0.2702    1.7176 C.ar    1  UNL11      -0.0550
      4 C          -3.1830    1.0595    1.9033 C.ar    1  UNL11      -0.0613
      5 C          -2.6556    1.9831    1.0335 C.ar    1  UNL11      -0.0579
      6 C          -1.8515    1.5820   -0.0152 C.ar    1  UNL11      -0.0159
      7 C          -1.5468    0.2491   -0.2313 C.ar    1  UNL11       0.1388
      8 N          -0.7431   -0.2097   -1.3251 N.am    1  UNL11      -0.0504
      9 C           0.5712   -0.3687   -1.4582 C.2     1  UNL11       0.4130
     10 C           1.6071   -0.0954   -0.4615 C.ar    1  UNL11       0.1148
     11 C           1.4330    0.8751    0.4758 C.ar    1  UNL11      -0.0396
     12 C           2.4367    1.1716    1.4216 C.ar    1  UNL11      -0.0191
     13 C           3.6281    0.4918    1.4339 C.ar    1  UNL11       0.1204
     14 O           4.6297    0.7751    2.3646 O.3     1  UNL11      -0.5066
     15 C           3.7966   -0.4813    0.4915 C.ar    1  UNL11       0.0222
     16 C           2.8012   -0.7894   -0.4628 C.ar    1  UNL11       0.1354
     17 O           3.1375   -1.7915   -1.3349 O.3     1  UNL11      -0.5058
     18 N           0.8426   -0.8126   -2.7330 N.2     1  UNL11       0.2263
     19 N          -0.3070   -0.9121   -3.3373 N.am    1  UNL11       0.0968
     20 C          -1.3104   -0.5597   -2.5336 C.2     1  UNL11       0.6257
     21 O          -2.5503   -0.5250   -2.7539 O.2     1  UNL11      -0.1726
     22 H          -0.8817   -2.2686   -0.0032 H       1  UNL11       0.0279
     23 H          -1.7900   -2.5810    1.5334 H       1  UNL11       0.0279
     24 H          -2.6738   -2.5907   -0.0423 H       1  UNL11       0.0279
     25 H          -3.3294   -0.9848    2.4191 H       1  UNL11       0.0621
     26 H          -3.8218    1.3749    2.7368 H       1  UNL11       0.0618
     27 H          -2.8954    3.0305    1.2038 H       1  UNL11       0.0619
     28 H          -1.4463    2.3143   -0.6869 H       1  UNL11       0.0658
     29 H           0.5442    1.4728    0.5993 H       1  UNL11       0.0628
     30 H           2.2908    1.9435    2.1613 H       1  UNL11       0.0654
     31 H           5.3496    1.4701    2.1704 H       1  UNL11       0.2921
     32 H           4.7471   -1.0240    0.5016 H       1  UNL11       0.0691
     33 H           2.6335   -2.1695   -2.0698 H       1  UNL11       0.2922
     34 H          -0.5073   -1.2241   -4.3353 H       1  UNL11       0.5148
@<TRIPOS>BOND
     1     1     2    1
     2     1    22    1
     3     1    23    1
     4     1    24    1
     5     2     3   ar
     6     3     4   ar
     7     3    25    1
     8     4     5   ar
     9     4    26    1
    10     5     6   ar
    11     5    27    1
    12     6     7   ar
    13     6    28    1
    14     7     8    1
    15     7     2   ar
    16     8     9    1
    17     9    10    1
    18     9    18    2
    19    10    11   ar
    20    11    12   ar
    21    11    29    1
    22    12    13   ar
    23    12    30    1
    24    13    14    1
    25    13    15   ar
    26    14    31    1
    27    15    16   ar
    28    15    32    1
    29    16    17    1
    30    16    10   ar
    31    17    33    1
    32    18    19    1
    33    19    20   am
    34    19    34    1
    35    20    21    2
    36    20     8   am
@<TRIPOS>MOLECULE
*****
 34 36 0 0 0
SMALL
GASTEIGER

@<TRIPOS>ATOM
      1 C          -1.8265   -2.1105    0.5169 C.3     1  UNL11      -0.0359
      2 C          -2.0958   -0.6527    0.6649 C.ar    1  UNL11      -0.0050
      3 C          -2.9008   -0.2702    1.7176 C.ar    1  UNL11      -0.0550
      4 C          -3.1830    1.0595    1.9033 C.ar    1  UNL11      -0.0613
      5 C          -2.6556    1.9831    1.0335 C.ar    1  UNL11      -0.0579
      6 C          -1.8515    1.5820   -0.0152 C.ar    1  UNL11      -0.0159
      7 C          -1.5468    0.2491   -0.2313 C.ar    1  UNL11       0.1388
      8 N          -0.7431   -0.2097   -1.3251 N.am    1  UNL11      -0.0504
      9 C           0.5712   -0.3687   -1.4582 C.2     1  UNL11       0.4130
     10 C           1.6071   -0.0954   -0.4615 C.ar    1  UNL11       0.1148
     11 C           1.3417   -0.2086    0.8679 C.ar    1  UNL11      -0.0396
     12 C           2.3209    0.0837    1.8403 C.ar    1  UNL11      -0.0191
     13 C           3.5805    0.4932    1.4830 C.ar    1  UNL11       0.1204
     14 O           4.5590    0.7855    2.4351 O.3     1  UNL11      -0.5066
     15 C           3.8411    0.6042    0.1477 C.ar    1  UNL11       0.0222
     16 C           2.8708    0.3157   -0.8381 C.ar    1  UNL11       0.1354
     17 O           3.3012    0.4821   -2.1284 O.3     1  UNL11      -0.5058
     18 N           0.8426   -0.8126   -2.7330 N.2     1  UNL11       0.2263
     19 N          -0.3070   -0.9121   -3.3373 N.am    1  UNL11       0.0968
     20 C          -1.3104   -0.5597   -2.5336 C.2     1  UNL11       0.6257
     21 O          -2.5503   -0.5250   -2.7539 O.2     1  UNL11      -0.1726
     22 H          -0.8817   -2.2686   -0.0032 H       1  UNL11       0.0279
     23 H          -1.7900   -2.5810    1.5334 H       1  UNL11       0.0279
     24 H          -2.6738   -2.5907   -0.0423 H       1  UNL11       0.0279
     25 H          -3.3294   -0.9848    2.4191 H       1  UNL11       0.0621
     26 H          -3.8218    1.3749    2.7368 H       1  UNL11       0.0618
     27 H          -2.8954    3.0305    1.2038 H       1  UNL11       0.0619
     28 H          -1.4463    2.3143   -0.6869 H       1  UNL11       0.0658
     29 H           0.4074   -0.5387    1.2930 H       1  UNL11       0.0628
     30 H           2.1018   -0.0080    2.8928 H       1  UNL11       0.0654
     31 H           4.6642    1.7265    2.8125 H       1  UNL11       0.2921
     32 H           4.8462    0.9305   -0.1374 H       1  UNL11       0.0691
     33 H           2.8256    0.3564   -2.9621 H       1  UNL11       0.2922
     34 H          -0.5073   -1.2241   -4.3353 H       1  UNL11       0.5148
@<TRIPOS>BOND
     1     1     2    1
     2     1    22    1
     3     1    23    1
     4     1    24    1
     5     2     3   ar
     6     3     4   ar
     7     3    25    1
     8     4     5   ar
     9     4    26    1
    10     5     6   ar
    11     5    27    1
    12     6     7   ar
    13     6    28    1
    14     7     8    1
    15     7     2   ar
    16     8     9    1
    17     9    10    1
    18     9    18    2
    19    10    11   ar
    20    11    12   ar
    21    11    29    1
    22    12    13   ar
    23    12    30    1
    24    13    14    1
    25    13    15   ar
    26    14    31    1
    27    15    16   ar
    28    15    32    1
    29    16    17    1
    30    16    10   ar
    31    17    33    1
    32    18    19    1
    33    19    20   am
    34    19    34    1
    35    20    21    2
    36    20     8   am
@<TRIPOS>MOLECULE
*****
 34 36 0 0 0
SMALL
GASTEIGER

@<TRIPOS>ATOM
      1 C          -1.8265   -2.1105    0.5169 C.3     1  UNL11      -0.0359
      2 C          -2.0958   -0.6527    0.6649 C.ar    1  UNL11      -0.0050
      3 C          -2.9008   -0.2702    1.7176 C.ar    1  UNL11      -0.0550
      4 C          -3.1830    1.0595    1.9033 C.ar    1  UNL11      -0.0613
      5 C          -2.6556    1.9831    1.0335 C.ar    1  UNL11      -0.0579
      6 C          -1.8515    1.5820   -0.0152 C.ar    1  UNL11      -0.0159
      7 C          -1.5468    0.2491   -0.2313 C.ar    1  UNL11       0.1388
      8 N          -0.7431   -0.2097   -1.3251 N.am    1  UNL11      -0.0504
      9 C           0.5712   -0.3687   -1.4582 C.2     1  UNL11       0.4130
     10 C           1.6071   -0.0954   -0.4615 C.ar    1  UNL11       0.1148
     11 C           1.2800    0.3782    0.7711 C.ar    1  UNL11      -0.0396
     12 C           2.2704    0.6773    1.7300 C.ar    1  UNL11      -0.0191
     13 C           3.6032    0.5014    1.4571 C.ar    1  UNL11       0.1204
     14 O           4.5935    0.7933    2.3971 O.3     1  UNL11      -0.5066
     15 C           3.9252    0.0252    0.2190 C.ar    1  UNL11       0.0222
     16 C           2.9449   -0.2783   -0.7522 C.ar    1  UNL11       0.1354
     17 O           3.4439   -0.7438   -1.9406 O.3     1  UNL11      -0.5058
     18 N           0.8426   -0.8126   -2.7330 N.2     1  UNL11       0.2263
     19 N          -0.3070   -0.9121   -3.3373 N.am    1  UNL11       0.0968
     20 C          -1.3104   -0.5597   -2.5336 C.2     1  UNL11       0.6257
     21 O          -2.5503   -0.5250   -2.7539 O.2     1  UNL11      -0.1726
     22 H          -0.8817   -2.2686   -0.0032 H       1  UNL11       0.0279
     23 H          -1.7900   -2.5810    1.5334 H       1  UNL11       0.0279
     24 H          -2.6738   -2.5907   -0.0423 H       1  UNL11       0.0279
     25 H          -3.3294   -0.9848    2.4191 H       1  UNL11       0.0621
     26 H          -3.8218    1.3749    2.7368 H       1  UNL11       0.0618
     27 H          -2.8954    3.0305    1.2038 H       1  UNL11       0.0619
     28 H          -1.4463    2.3143   -0.6869 H       1  UNL11       0.0658
     29 H           0.2773    0.5444    1.1312 H       1  UNL11       0.0628
     30 H           2.0023    1.0533    2.7051 H       1  UNL11       0.0654
     31 H           5.0141    1.7202    2.4505 H       1  UNL11       0.2921
     32 H           4.9886   -0.1155    0.0014 H       1  UNL11       0.0691
     33 H           2.9793   -1.0074   -2.7478 H       1  UNL11       0.2922
     34 H          -0.5073   -1.2241   -4.3353 H       1  UNL11       0.5148
@<TRIPOS>BOND
     1     1     2    1
     2     1    22    1
     3     1    23    1
     4     1    24    1
     5     2     3   ar
     6     3     4   ar
     7     3    25    1
     8     4     5   ar
     9     4    26    1
    10     5     6   ar
    11     5    27    1
    12     6     7   ar
    13     6    28    1
    14     7     8    1
    15     7     2   ar
    16     8     9    1
    17     9    10    1
    18     9    18    2
    19    10    11   ar
    20    11    12   ar
    21    11    29    1
    22    12    13   ar
    23    12    30    1
    24    13    14    1
    25    13    15   ar
    26    14    31    1
    27    15    16   ar
    28    15    32    1
    29    16    17    1
    30    16    10   ar
    31    17    33    1
    32    18    19    1
    33    19    20   am
    34    19    34    1
    35    20    21    2
    36    20     8   am
@<TRIPOS>MOLECULE
*****
 34 36 0 0 0
SMALL
GASTEIGER

@<TRIPOS>ATOM
      1 C          -1.2614    2.5884   -1.0389 C.3     1  UNL11      -0.0359
      2 C          -1.7989    1.6003   -0.0620 C.ar    1  UNL11      -0.0050
      3 C          -2.5401    2.1003    0.9883 C.ar    1  UNL11      -0.0550
      4 C          -3.0604    1.2370    1.9189 C.ar    1  UNL11      -0.0613
      5 C          -2.8306   -0.1108    1.7831 C.ar    1  UNL11      -0.0579
      6 C          -2.0861   -0.5939    0.7251 C.ar    1  UNL11      -0.0159
      7 C          -1.5468    0.2491   -0.2313 C.ar    1  UNL11       0.1388
      8 N          -0.7431   -0.2097   -1.3251 N.am    1  UNL11      -0.0504
      9 C           0.5712   -0.3687   -1.4582 C.2     1  UNL11       0.4130
     10 C           1.6071   -0.0954   -0.4615 C.ar    1  UNL11       0.1148
     11 C           1.2800    0.3782    0.7711 C.ar    1  UNL11      -0.0396
     12 C           2.2704    0.6773    1.7300 C.ar    1  UNL11      -0.0191
     13 C           3.6032    0.5014    1.4571 C.ar    1  UNL11       0.1204
     14 O           4.5935    0.7933    2.3971 O.3     1  UNL11      -0.5066
     15 C           3.9252    0.0252    0.2190 C.ar    1  UNL11       0.0222
     16 C           2.9449   -0.2783   -0.7522 C.ar    1  UNL11       0.1354
     17 O           3.4439   -0.7438   -1.9406 O.3     1  UNL11      -0.5058
     18 N           0.8426   -0.8126   -2.7330 N.2     1  UNL11       0.2263
     19 N          -0.3070   -0.9121   -3.3373 N.am    1  UNL11       0.0968
     20 C          -1.3104   -0.5597   -2.5336 C.2     1  UNL11       0.6257
     21 O          -2.5503   -0.5250   -2.7539 O.2     1  UNL11      -0.1726
     22 H          -1.1088    2.1150   -2.0088 H       1  UNL11       0.0279
     23 H          -1.9849    3.4389   -1.1349 H       1  UNL11       0.0279
     24 H          -0.2983    3.0129   -0.6472 H       1  UNL11       0.0279
     25 H          -2.7348    3.1645    1.1156 H       1  UNL11       0.0621
     26 H          -3.6511    1.6236    2.7579 H       1  UNL11       0.0618
     27 H          -3.2547   -0.7729    2.5351 H       1  UNL11       0.0619
     28 H          -1.9145   -1.6491    0.6315 H       1  UNL11       0.0658
     29 H           0.2773    0.5444    1.1312 H       1  UNL11       0.0628
     30 H           2.0023    1.0533    2.7051 H       1  UNL11       0.0654
     31 H           5.0141    1.7202    2.4505 H       1  UNL11       0.2921
     32 H           4.9886   -0.1155    0.0014 H       1  UNL11       0.0691
     33 H           2.9793   -1.0074   -2.7478 H       1  UNL11       0.2922
     34 H          -0.5073   -1.2241   -4.3353 H       1  UNL11       0.5148
@<TRIPOS>BOND
     1     1     2    1
     2     1    22    1
     3     1    23    1
     4     1    24    1
     5     2     3   ar
     6     3     4   ar
     7     3    25    1
     8     4     5   ar
     9     4    26    1
    10     5     6   ar
    11     5    27    1
    12     6     7   ar
    13     6    28    1
    14     7     8    1
    15     7     2   ar
    16     8     9    1
    17     9    10    1
    18     9    18    2
    19    10    11   ar
    20    11    12   ar
    21    11    29    1
    22    12    13   ar
    23    12    30    1
    24    13    14    1
    25    13    15   ar
    26    14    31    1
    27    15    16   ar
    28    15    32    1
    29    16    17    1
    30    16    10   ar
    31    17    33    1
    32    18    19    1
    33    19    20   am
    34    19    34    1
    35    20    21    2
    36    20     8   am
@<TRIPOS>MOLECULE
*****
 34 36 0 0 0
SMALL
GASTEIGER

@<TRIPOS>ATOM
      1 C          -1.2614    2.5884   -1.0389 C.3     1  UNL11      -0.0359
      2 C          -1.7989    1.6003   -0.0620 C.ar    1  UNL11      -0.0050
      3 C          -2.5401    2.1003    0.9883 C.ar    1  UNL11      -0.0550
      4 C          -3.0604    1.2370    1.9189 C.ar    1  UNL11      -0.0613
      5 C          -2.8306   -0.1108    1.7831 C.ar    1  UNL11      -0.0579
      6 C          -2.0861   -0.5939    0.7251 C.ar    1  UNL11      -0.0159
      7 C          -1.5468    0.2491   -0.2313 C.ar    1  UNL11       0.1388
      8 N          -0.7431   -0.2097   -1.3251 N.am    1  UNL11      -0.0504
      9 C           0.5712   -0.3687   -1.4582 C.2     1  UNL11       0.4130
     10 C           1.6071   -0.0954   -0.4615 C.ar    1  UNL11       0.1148
     11 C           1.4330    0.8751    0.4758 C.ar    1  UNL11      -0.0396
     12 C           2.4367    1.1716    1.4216 C.ar    1  UNL11      -0.0191
     13 C           3.6281    0.4918    1.4339 C.ar    1  UNL11       0.1204
     14 O           4.6297    0.7751    2.3646 O.3     1  UNL11      -0.5066
     15 C           3.7966   -0.4813    0.4915 C.ar    1  UNL11       0.0222
     16 C           2.8012   -0.7894   -0.4628 C.ar    1  UNL11       0.1354
     17 O           3.1375   -1.7915   -1.3349 O.3     1  UNL11      -0.5058
     18 N           0.8426   -0.8126   -2.7330 N.2     1  UNL11       0.2263
     19 N          -0.3070   -0.9121   -3.3373 N.am    1  UNL11       0.0968
     20 C          -1.3104   -0.5597   -2.5336 C.2     1  UNL11       0.6257
     21 O          -2.5503   -0.5250   -2.7539 O.2     1  UNL11      -0.1726
     22 H          -1.1088    2.1150   -2.0088 H       1  UNL11       0.0279
     23 H          -1.9849    3.4389   -1.1349 H       1  UNL11       0.0279
     24 H          -0.2983    3.0129   -0.6472 H       1  UNL11       0.0279
     25 H          -2.7348    3.1645    1.1156 H       1  UNL11       0.0621
     26 H          -3.6511    1.6236    2.7579 H       1  UNL11       0.0618
     27 H          -3.2547   -0.7729    2.5351 H       1  UNL11       0.0619
     28 H          -1.9145   -1.6491    0.6315 H       1  UNL11       0.0658
     29 H           0.5442    1.4728    0.5993 H       1  UNL11       0.0628
     30 H           2.2908    1.9435    2.1613 H       1  UNL11       0.0654
     31 H           5.3496    1.4701    2.1704 H       1  UNL11       0.2921
     32 H           4.7471   -1.0240    0.5016 H       1  UNL11       0.0691
     33 H           2.6335   -2.1695   -2.0698 H       1  UNL11       0.2922
     34 H          -0.5073   -1.2241   -4.3353 H       1  UNL11       0.5148
@<TRIPOS>BOND
     1     1     2    1
     2     1    22    1
     3     1    23    1
     4     1    24    1
     5     2     3   ar
     6     3     4   ar
     7     3    25    1
     8     4     5   ar
     9     4    26    1
    10     5     6   ar
    11     5    27    1
    12     6     7   ar
    13     6    28    1
    14     7     8    1
    15     7     2   ar
    16     8     9    1
    17     9    10    1
    18     9    18    2
    19    10    11   ar
    20    11    12   ar
    21    11    29    1
    22    12    13   ar
    23    12    30    1
    24    13    14    1
    25    13    15   ar
    26    14    31    1
    27    15    16   ar
    28    15    32    1
    29    16    17    1
    30    16    10   ar
    31    17    33    1
    32    18    19    1
    33    19    20   am
    34    19    34    1
    35    20    21    2
    36    20     8   am
@<TRIPOS>MOLECULE
*****
 34 36 0 0 0
SMALL
GASTEIGER

@<TRIPOS>ATOM
      1 C          -0.2854    2.3973   -0.2416 C.3     1  UNL11      -0.0359
      2 C          -1.3342    1.5011    0.3211 C.ar    1  UNL11      -0.0050
      3 C          -2.0570    1.9819    1.3929 C.ar    1  UNL11      -0.0550
      4 C          -3.0359    1.2003    1.9523 C.ar    1  UNL11      -0.0613
      5 C          -3.2749   -0.0480    1.4304 C.ar    1  UNL11      -0.0579
      6 C          -2.5413   -0.5133    0.3568 C.ar    1  UNL11      -0.0159
      7 C          -1.5468    0.2491   -0.2313 C.ar    1  UNL11       0.1388
      8 N          -0.7431   -0.2097   -1.3251 N.am    1  UNL11      -0.0504
      9 C           0.5712   -0.3687   -1.4582 C.2     1  UNL11       0.4130
     10 C           1.6071   -0.0954   -0.4615 C.ar    1  UNL11       0.1148
     11 C           1.3417   -0.2086    0.8679 C.ar    1  UNL11      -0.0396
     12 C           2.3209    0.0837    1.8403 C.ar    1  UNL11      -0.0191
     13 C           3.5805    0.4932    1.4830 C.ar    1  UNL11       0.1204
     14 O           4.5590    0.7855    2.4351 O.3     1  UNL11      -0.5066
     15 C           3.8411    0.6042    0.1477 C.ar    1  UNL11       0.0222
     16 C           2.8708    0.3157   -0.8381 C.ar    1  UNL11       0.1354
     17 O           3.3012    0.4821   -2.1284 O.3     1  UNL11      -0.5058
     18 N           0.8426   -0.8126   -2.7330 N.2     1  UNL11       0.2263
     19 N          -0.3070   -0.9121   -3.3373 N.am    1  UNL11       0.0968
     20 C          -1.3104   -0.5597   -2.5336 C.2     1  UNL11       0.6257
     21 O          -2.5503   -0.5250   -2.7539 O.2     1  UNL11      -0.1726
     22 H          -0.1061    2.1564   -1.2895 H       1  UNL11       0.0279
     23 H          -0.6223    3.4617   -0.1432 H       1  UNL11       0.0279
     24 H           0.6576    2.2894    0.3586 H       1  UNL11       0.0279
     25 H          -1.8847    2.9679    1.8227 H       1  UNL11       0.0621
     26 H          -3.6167    1.5725    2.8047 H       1  UNL11       0.0618
     27 H          -4.0567   -0.6468    1.8930 H       1  UNL11       0.0619
     28 H          -2.7387   -1.4903   -0.0407 H       1  UNL11       0.0658
     29 H           0.4074   -0.5387    1.2930 H       1  UNL11       0.0628
     30 H           2.1018   -0.0080    2.8928 H       1  UNL11       0.0654
     31 H           4.6642    1.7265    2.8125 H       1  UNL11       0.2921
     32 H           4.8462    0.9305   -0.1374 H       1  UNL11       0.0691
     33 H           2.8256    0.3564   -2.9621 H       1  UNL11       0.2922
     34 H          -0.5073   -1.2241   -4.3353 H       1  UNL11       0.5148
@<TRIPOS>BOND
     1     1     2    1
     2     1    22    1
     3     1    23    1
     4     1    24    1
     5     2     3   ar
     6     3     4   ar
     7     3    25    1
     8     4     5   ar
     9     4    26    1
    10     5     6   ar
    11     5    27    1
    12     6     7   ar
    13     6    28    1
    14     7     8    1
    15     7     2   ar
    16     8     9    1
    17     9    10    1
    18     9    18    2
    19    10    11   ar
    20    11    12   ar
    21    11    29    1
    22    12    13   ar
    23    12    30    1
    24    13    14    1
    25    13    15   ar
    26    14    31    1
    27    15    16   ar
    28    15    32    1
    29    16    17    1
    30    16    10   ar
    31    17    33    1
    32    18    19    1
    33    19    20   am
    34    19    34    1
    35    20    21    2
    36    20     8   am
@<TRIPOS>MOLECULE
*****
 34 36 0 0 0
SMALL
GASTEIGER

@<TRIPOS>ATOM
      1 C          -2.3080    2.1647   -1.6302 C.3     1  UNL11      -0.0359
      2 C          -2.3010    1.4046   -0.3488 C.ar    1  UNL11      -0.0050
      3 C          -3.0688    1.9085    0.6803 C.ar    1  UNL11      -0.0550
      4 C          -3.1009    1.2504    1.8836 C.ar    1  UNL11      -0.0613
      5 C          -2.3649    0.1003    2.0368 C.ar    1  UNL11      -0.0579
      6 C          -1.6016   -0.3898    0.9954 C.ar    1  UNL11      -0.0159
      7 C          -1.5468    0.2491   -0.2313 C.ar    1  UNL11       0.1388
      8 N          -0.7431   -0.2097   -1.3251 N.am    1  UNL11      -0.0504
      9 C           0.5712   -0.3687   -1.4582 C.2     1  UNL11       0.4130
     10 C           1.6071   -0.0954   -0.4615 C.ar    1  UNL11       0.1148
     11 C           1.3417   -0.2086    0.8679 C.ar    1  UNL11      -0.0396
     12 C           2.3209    0.0837    1.8403 C.ar    1  UNL11      -0.0191
     13 C           3.5805    0.4932    1.4830 C.ar    1  UNL11       0.1204
     14 O           4.5590    0.7855    2.4351 O.3     1  UNL11      -0.5066
     15 C           3.8411    0.6042    0.1477 C.ar    1  UNL11       0.0222
     16 C           2.8708    0.3157   -0.8381 C.ar    1  UNL11       0.1354
     17 O           3.3012    0.4821   -2.1284 O.3     1  UNL11      -0.5058
     18 N           0.8426   -0.8126   -2.7330 N.2     1  UNL11       0.2263
     19 N          -0.3070   -0.9121   -3.3373 N.am    1  UNL11       0.0968
     20 C          -1.3104   -0.5597   -2.5336 C.2     1  UNL11       0.6257
     21 O          -2.5503   -0.5250   -2.7539 O.2     1  UNL11      -0.1726
     22 H          -2.0785    1.5008   -2.4637 H       1  UNL11       0.0279
     23 H          -3.3177    2.6293   -1.7746 H       1  UNL11       0.0279
     24 H          -1.5615    3.0016   -1.5707 H       1  UNL11       0.0279
     25 H          -3.6599    2.8181    0.5812 H       1  UNL11       0.0621
     26 H          -3.7078    1.6420    2.7086 H       1  UNL11       0.0618
     27 H          -2.4084   -0.4015    3.0012 H       1  UNL11       0.0619
     28 H          -1.0318   -1.2892    1.1292 H       1  UNL11       0.0658
     29 H           0.4074   -0.5387    1.2930 H       1  UNL11       0.0628
     30 H           2.1018   -0.0080    2.8928 H       1  UNL11       0.0654
     31 H           4.6642    1.7265    2.8125 H       1  UNL11       0.2921
     32 H           4.8462    0.9305   -0.1374 H       1  UNL11       0.0691
     33 H           2.8256    0.3564   -2.9621 H       1  UNL11       0.2922
     34 H          -0.5073   -1.2241   -4.3353 H       1  UNL11       0.5148
@<TRIPOS>BOND
     1     1     2    1
     2     1    22    1
     3     1    23    1
     4     1    24    1
     5     2     3   ar
     6     3     4   ar
     7     3    25    1
     8     4     5   ar
     9     4    26    1
    10     5     6   ar
    11     5    27    1
    12     6     7   ar
    13     6    28    1
    14     7     8    1
    15     7     2   ar
    16     8     9    1
    17     9    10    1
    18     9    18    2
    19    10    11   ar
    20    11    12   ar
    21    11    29    1
    22    12    13   ar
    23    12    30    1
    24    13    14    1
    25    13    15   ar
    26    14    31    1
    27    15    16   ar
    28    15    32    1
    29    16    17    1
    30    16    10   ar
    31    17    33    1
    32    18    19    1
    33    19    20   am
    34    19    34    1
    35    20    21    2
    36    20     8   am
@<TRIPOS>MOLECULE
*****
 34 36 0 0 0
SMALL
GASTEIGER

@<TRIPOS>ATOM
      1 C          -0.2854    2.3973   -0.2416 C.3     1  UNL11      -0.0359
      2 C          -1.3342    1.5011    0.3211 C.ar    1  UNL11      -0.0050
      3 C          -2.0570    1.9819    1.3929 C.ar    1  UNL11      -0.0550
      4 C          -3.0359    1.2003    1.9523 C.ar    1  UNL11      -0.0613
      5 C          -3.2749   -0.0480    1.4304 C.ar    1  UNL11      -0.0579
      6 C          -2.5413   -0.5133    0.3568 C.ar    1  UNL11      -0.0159
      7 C          -1.5468    0.2491   -0.2313 C.ar    1  UNL11       0.1388
      8 N          -0.7431   -0.2097   -1.3251 N.am    1  UNL11      -0.0504
      9 C           0.5712   -0.3687   -1.4582 C.2     1  UNL11       0.4130
     10 C           1.6071   -0.0954   -0.4615 C.ar    1  UNL11       0.1148
     11 C           1.4330    0.8751    0.4758 C.ar    1  UNL11      -0.0396
     12 C           2.4367    1.1716    1.4216 C.ar    1  UNL11      -0.0191
     13 C           3.6281    0.4918    1.4339 C.ar    1  UNL11       0.1204
     14 O           4.6297    0.7751    2.3646 O.3     1  UNL11      -0.5066
     15 C           3.7966   -0.4813    0.4915 C.ar    1  UNL11       0.0222
     16 C           2.8012   -0.7894   -0.4628 C.ar    1  UNL11       0.1354
     17 O           3.1375   -1.7915   -1.3349 O.3     1  UNL11      -0.5058
     18 N           0.8426   -0.8126   -2.7330 N.2     1  UNL11       0.2263
     19 N          -0.3070   -0.9121   -3.3373 N.am    1  UNL11       0.0968
     20 C          -1.3104   -0.5597   -2.5336 C.2     1  UNL11       0.6257
     21 O          -2.5503   -0.5250   -2.7539 O.2     1  UNL11      -0.1726
     22 H          -0.1061    2.1564   -1.2895 H       1  UNL11       0.0279
     23 H          -0.6223    3.4617   -0.1432 H       1  UNL11       0.0279
     24 H           0.6576    2.2894    0.3586 H       1  UNL11       0.0279
     25 H          -1.8847    2.9679    1.8227 H       1  UNL11       0.0621
     26 H          -3.6167    1.5725    2.8047 H       1  UNL11       0.0618
     27 H          -4.0567   -0.6468    1.8930 H       1  UNL11       0.0619
     28 H          -2.7387   -1.4903   -0.0407 H       1  UNL11       0.0658
     29 H           0.5442    1.4728    0.5993 H       1  UNL11       0.0628
     30 H           2.2908    1.9435    2.1613 H       1  UNL11       0.0654
     31 H           5.3496    1.4701    2.1704 H       1  UNL11       0.2921
     32 H           4.7471   -1.0240    0.5016 H       1  UNL11       0.0691
     33 H           2.6335   -2.1695   -2.0698 H       1  UNL11       0.2922
     34 H          -0.5073   -1.2241   -4.3353 H       1  UNL11       0.5148
@<TRIPOS>BOND
     1     1     2    1
     2     1    22    1
     3     1    23    1
     4     1    24    1
     5     2     3   ar
     6     3     4   ar
     7     3    25    1
     8     4     5   ar
     9     4    26    1
    10     5     6   ar
    11     5    27    1
    12     6     7   ar
    13     6    28    1
    14     7     8    1
    15     7     2   ar
    16     8     9    1
    17     9    10    1
    18     9    18    2
    19    10    11   ar
    20    11    12   ar
    21    11    29    1
    22    12    13   ar
    23    12    30    1
    24    13    14    1
    25    13    15   ar
    26    14    31    1
    27    15    16   ar
    28    15    32    1
    29    16    17    1
    30    16    10   ar
    31    17    33    1
    32    18    19    1
    33    19    20   am
    34    19    34    1
    35    20    21    2
    36    20     8   am
@<TRIPOS>MOLECULE
*****
 34 36 0 0 0
SMALL
GASTEIGER

@<TRIPOS>ATOM
      1 C          -0.2854    2.3973   -0.2416 C.3     1  UNL11      -0.0359
      2 C          -1.3342    1.5011    0.3211 C.ar    1  UNL11      -0.0050
      3 C          -2.0570    1.9819    1.3929 C.ar    1  UNL11      -0.0550
      4 C          -3.0359    1.2003    1.9523 C.ar    1  UNL11      -0.0613
      5 C          -3.2749   -0.0480    1.4304 C.ar    1  UNL11      -0.0579
      6 C          -2.5413   -0.5133    0.3568 C.ar    1  UNL11      -0.0159
      7 C          -1.5468    0.2491   -0.2313 C.ar    1  UNL11       0.1388
      8 N          -0.7431   -0.2097   -1.3251 N.am    1  UNL11      -0.0504
      9 C           0.5712   -0.3687   -1.4582 C.2     1  UNL11       0.4130
     10 C           1.6071   -0.0954   -0.4615 C.ar    1  UNL11       0.1148
     11 C           1.2800    0.3782    0.7711 C.ar    1  UNL11      -0.0396
     12 C           2.2704    0.6773    1.7300 C.ar    1  UNL11      -0.0191
     13 C           3.6032    0.5014    1.4571 C.ar    1  UNL11       0.1204
     14 O           4.5935    0.7933    2.3971 O.3     1  UNL11      -0.5066
     15 C           3.9252    0.0252    0.2190 C.ar    1  UNL11       0.0222
     16 C           2.9449   -0.2783   -0.7522 C.ar    1  UNL11       0.1354
     17 O           3.4439   -0.7438   -1.9406 O.3     1  UNL11      -0.5058
     18 N           0.8426   -0.8126   -2.7330 N.2     1  UNL11       0.2263
     19 N          -0.3070   -0.9121   -3.3373 N.am    1  UNL11       0.0968
     20 C          -1.3104   -0.5597   -2.5336 C.2     1  UNL11       0.6257
     21 O          -2.5503   -0.5250   -2.7539 O.2     1  UNL11      -0.1726
     22 H          -0.1061    2.1564   -1.2895 H       1  UNL11       0.0279
     23 H          -0.6223    3.4617   -0.1432 H       1  UNL11       0.0279
     24 H           0.6576    2.2894    0.3586 H       1  UNL11       0.0279
     25 H          -1.8847    2.9679    1.8227 H       1  UNL11       0.0621
     26 H          -3.6167    1.5725    2.8047 H       1  UNL11       0.0618
     27 H          -4.0567   -0.6468    1.8930 H       1  UNL11       0.0619
     28 H          -2.7387   -1.4903   -0.0407 H       1  UNL11       0.0658
     29 H           0.2773    0.5444    1.1312 H       1  UNL11       0.0628
     30 H           2.0023    1.0533    2.7051 H       1  UNL11       0.0654
     31 H           5.0141    1.7202    2.4505 H       1  UNL11       0.2921
     32 H           4.9886   -0.1155    0.0014 H       1  UNL11       0.0691
     33 H           2.9793   -1.0074   -2.7478 H       1  UNL11       0.2922
     34 H          -0.5073   -1.2241   -4.3353 H       1  UNL11       0.5148
@<TRIPOS>BOND
     1     1     2    1
     2     1    22    1
     3     1    23    1
     4     1    24    1
     5     2     3   ar
     6     3     4   ar
     7     3    25    1
     8     4     5   ar
     9     4    26    1
    10     5     6   ar
    11     5    27    1
    12     6     7   ar
    13     6    28    1
    14     7     8    1
    15     7     2   ar
    16     8     9    1
    17     9    10    1
    18     9    18    2
    19    10    11   ar
    20    11    12   ar
    21    11    29    1
    22    12    13   ar
    23    12    30    1
    24    13    14    1
    25    13    15   ar
    26    14    31    1
    27    15    16   ar
    28    15    32    1
    29    16    17    1
    30    16    10   ar
    31    17    33    1
    32    18    19    1
    33    19    20   am
    34    19    34    1
    35    20    21    2
    36    20     8   am
@<TRIPOS>MOLECULE
*****
 34 36 0 0 0
SMALL
GASTEIGER

@<TRIPOS>ATOM
      1 C          -2.7974   -1.9048   -0.2828 C.3     1  UNL11      -0.0359
      2 C          -2.5581   -0.5466    0.2807 C.ar    1  UNL11      -0.0050
      3 C          -3.3811   -0.1444    1.3119 C.ar    1  UNL11      -0.0550
      4 C          -3.2070    1.0966    1.8701 C.ar    1  UNL11      -0.0613
      5 C          -2.2133    1.9137    1.3875 C.ar    1  UNL11      -0.0579
      6 C          -1.3985    1.4946    0.3543 C.ar    1  UNL11      -0.0159
      7 C          -1.5468    0.2491   -0.2313 C.ar    1  UNL11       0.1388
      8 N          -0.7431   -0.2097   -1.3251 N.am    1  UNL11      -0.0504
      9 C           0.5712   -0.3687   -1.4582 C.2     1  UNL11       0.4130
     10 C           1.6071   -0.0954   -0.4615 C.ar    1  UNL11       0.1148
     11 C           1.4330    0.8751    0.4758 C.ar    1  UNL11      -0.0396
     12 C           2.4367    1.1716    1.4216 C.ar    1  UNL11      -0.0191
     13 C           3.6281    0.4918    1.4339 C.ar    1  UNL11       0.1204
     14 O           4.6297    0.7751    2.3646 O.3     1  UNL11      -0.5066
     15 C           3.7966   -0.4813    0.4915 C.ar    1  UNL11       0.0222
     16 C           2.8012   -0.7894   -0.4628 C.ar    1  UNL11       0.1354
     17 O           3.1375   -1.7915   -1.3349 O.3     1  UNL11      -0.5058
     18 N           0.8426   -0.8126   -2.7330 N.2     1  UNL11       0.2263
     19 N          -0.3070   -0.9121   -3.3373 N.am    1  UNL11       0.0968
     20 C          -1.3104   -0.5597   -2.5336 C.2     1  UNL11       0.6257
     21 O          -2.5503   -0.5250   -2.7539 O.2     1  UNL11      -0.1726
     22 H          -1.8818   -2.2956   -0.7268 H       1  UNL11       0.0279
     23 H          -3.1488   -2.5842    0.5363 H       1  UNL11       0.0279
     24 H          -3.6188   -1.8513   -1.0468 H       1  UNL11       0.0279
     25 H          -4.1748   -0.7754    1.7101 H       1  UNL11       0.0621
     26 H          -3.8556    1.4266    2.6903 H       1  UNL11       0.0618
     27 H          -2.0972    2.8925    1.8482 H       1  UNL11       0.0619
     28 H          -0.6263    2.1432   -0.0127 H       1  UNL11       0.0658
     29 H           0.5442    1.4728    0.5993 H       1  UNL11       0.0628
     30 H           2.2908    1.9435    2.1613 H       1  UNL11       0.0654
     31 H           5.3496    1.4701    2.1704 H       1  UNL11       0.2921
     32 H           4.7471   -1.0240    0.5016 H       1  UNL11       0.0691
     33 H           2.6335   -2.1695   -2.0698 H       1  UNL11       0.2922
     34 H          -0.5073   -1.2241   -4.3353 H       1  UNL11       0.5148
@<TRIPOS>BOND
     1     1     2    1
     2     1    22    1
     3     1    23    1
     4     1    24    1
     5     2     3   ar
     6     3     4   ar
     7     3    25    1
     8     4     5   ar
     9     4    26    1
    10     5     6   ar
    11     5    27    1
    12     6     7   ar
    13     6    28    1
    14     7     8    1
    15     7     2   ar
    16     8     9    1
    17     9    10    1
    18     9    18    2
    19    10    11   ar
    20    11    12   ar
    21    11    29    1
    22    12    13   ar
    23    12    30    1
    24    13    14    1
    25    13    15   ar
    26    14    31    1
    27    15    16   ar
    28    15    32    1
    29    16    17    1
    30    16    10   ar
    31    17    33    1
    32    18    19    1
    33    19    20   am
    34    19    34    1
    35    20    21    2
    36    20     8   am
@<TRIPOS>MOLECULE
*****
 34 36 0 0 0
SMALL
GASTEIGER

@<TRIPOS>ATOM
      1 C          -2.7974   -1.9048   -0.2828 C.3     1  UNL11      -0.0359
      2 C          -2.5581   -0.5466    0.2807 C.ar    1  UNL11      -0.0050
      3 C          -3.3811   -0.1444    1.3119 C.ar    1  UNL11      -0.0550
      4 C          -3.2070    1.0966    1.8701 C.ar    1  UNL11      -0.0613
      5 C          -2.2133    1.9137    1.3875 C.ar    1  UNL11      -0.0579
      6 C          -1.3985    1.4946    0.3543 C.ar    1  UNL11      -0.0159
      7 C          -1.5468    0.2491   -0.2313 C.ar    1  UNL11       0.1388
      8 N          -0.7431   -0.2097   -1.3251 N.am    1  UNL11      -0.0504
      9 C           0.5712   -0.3687   -1.4582 C.2     1  UNL11       0.4130
     10 C           1.6071   -0.0954   -0.4615 C.ar    1  UNL11       0.1148
     11 C           1.2800    0.3782    0.7711 C.ar    1  UNL11      -0.0396
     12 C           2.2704    0.6773    1.7300 C.ar    1  UNL11      -0.0191
     13 C           3.6032    0.5014    1.4571 C.ar    1  UNL11       0.1204
     14 O           4.5935    0.7933    2.3971 O.3     1  UNL11      -0.5066
     15 C           3.9252    0.0252    0.2190 C.ar    1  UNL11       0.0222
     16 C           2.9449   -0.2783   -0.7522 C.ar    1  UNL11       0.1354
     17 O           3.4439   -0.7438   -1.9406 O.3     1  UNL11      -0.5058
     18 N           0.8426   -0.8126   -2.7330 N.2     1  UNL11       0.2263
     19 N          -0.3070   -0.9121   -3.3373 N.am    1  UNL11       0.0968
     20 C          -1.3104   -0.5597   -2.5336 C.2     1  UNL11       0.6257
     21 O          -2.5503   -0.5250   -2.7539 O.2     1  UNL11      -0.1726
     22 H          -1.8818   -2.2956   -0.7268 H       1  UNL11       0.0279
     23 H          -3.1488   -2.5842    0.5363 H       1  UNL11       0.0279
     24 H          -3.6188   -1.8513   -1.0468 H       1  UNL11       0.0279
     25 H          -4.1748   -0.7754    1.7101 H       1  UNL11       0.0621
     26 H          -3.8556    1.4266    2.6903 H       1  UNL11       0.0618
     27 H          -2.0972    2.8925    1.8482 H       1  UNL11       0.0619
     28 H          -0.6263    2.1432   -0.0127 H       1  UNL11       0.0658
     29 H           0.2773    0.5444    1.1312 H       1  UNL11       0.0628
     30 H           2.0023    1.0533    2.7051 H       1  UNL11       0.0654
     31 H           5.0141    1.7202    2.4505 H       1  UNL11       0.2921
     32 H           4.9886   -0.1155    0.0014 H       1  UNL11       0.0691
     33 H           2.9793   -1.0074   -2.7478 H       1  UNL11       0.2922
     34 H          -0.5073   -1.2241   -4.3353 H       1  UNL11       0.5148
@<TRIPOS>BOND
     1     1     2    1
     2     1    22    1
     3     1    23    1
     4     1    24    1
     5     2     3   ar
     6     3     4   ar
     7     3    25    1
     8     4     5   ar
     9     4    26    1
    10     5     6   ar
    11     5    27    1
    12     6     7   ar
    13     6    28    1
    14     7     8    1
    15     7     2   ar
    16     8     9    1
    17     9    10    1
    18     9    18    2
    19    10    11   ar
    20    11    12   ar
    21    11    29    1
    22    12    13   ar
    23    12    30    1
    24    13    14    1
    25    13    15   ar
    26    14    31    1
    27    15    16   ar
    28    15    32    1
    29    16    17    1
    30    16    10   ar
    31    17    33    1
    32    18    19    1
    33    19    20   am
    34    19    34    1
    35    20    21    2
    36    20     8   am
