@<TRIPOS>MOLECULE
*****
 38 40 0 0 0
SMALL
GASTEIGER

@<TRIPOS>ATOM
      1 O           0.0532   -0.7386   -1.2761 O.2     1  UNL11      -0.2737
      2 C           0.0043    0.4506   -0.8680 C.2     1  UNL11       0.2407
      3 C          -1.1531    1.3541   -1.1050 C.3     1  UNL11       0.1288
      4 C          -0.8325    2.7762   -1.2117 C.2     1  UNL11       0.3035
      5 N           0.2018    3.3607   -0.5850 N.2     1  UNL11      -0.0449
      6 C           0.4618    4.6693   -0.6585 C.ar    1  UNL11       0.1904
      7 C           1.4906    5.3221   -0.0339 C.ar    1  UNL11      -0.0100
      8 C           1.6907    6.6797   -0.1446 C.ar    1  UNL11      -0.0576
      9 C           0.8439    7.4267   -0.9023 C.ar    1  UNL11      -0.0607
     10 C          -0.2081    6.8068   -1.5495 C.ar    1  UNL11      -0.0432
     11 C          -0.3981    5.4463   -1.4298 C.ar    1  UNL11       0.1121
     12 C          -1.4659    4.8349   -2.0783 C.2     1  UNL11       0.3368
     13 O          -2.2644    5.5271   -2.7904 O.2     1  UNL11      -0.2416
     14 N          -1.6643    3.5360   -1.9629 N.am    1  UNL11      -0.1698
     15 N           1.1552    0.9193   -0.1407 N.am    1  UNL11      -0.2337
     16 N           1.3099    2.1815    0.4086 N.am    1  UNL11      -0.2304
     17 C           2.0955    2.3463    1.5745 C.2     1  UNL11       0.2601
     18 O           2.1846    3.5375    2.0366 O.2     1  UNL11      -0.2687
     19 C           2.7890    1.3046    2.2708 C.ar    1  UNL11       0.0383
     20 C           2.7058    0.0122    1.7898 C.ar    1  UNL11      -0.0469
     21 C           3.3395   -1.0337    2.4002 C.ar    1  UNL11      -0.0257
     22 C           4.0762   -0.7534    3.5309 C.ar    1  UNL11       0.1234
     23 F           4.7130   -1.7908    4.1449 F       1  UNL11      -0.2055
     24 C           4.1753    0.5173    4.0313 C.ar    1  UNL11      -0.0257
     25 C           3.5222    1.5475    3.3877 C.ar    1  UNL11      -0.0469
     26 H          -1.7016    1.0151   -2.0326 H       1  UNL11       0.0483
     27 H          -1.8846    1.1430   -0.2798 H       1  UNL11       0.0483
     28 H           2.1869    4.7499    0.5884 H       1  UNL11       0.0661
     29 H           2.5122    7.1625    0.3560 H       1  UNL11       0.0619
     30 H           0.9442    8.5035   -1.0345 H       1  UNL11       0.0618
     31 H          -0.9001    7.3794   -2.1605 H       1  UNL11       0.0627
     32 H          -2.4875    3.1280   -2.4723 H       1  UNL11       0.3013
     33 H           1.9399    0.2055   -0.0372 H       1  UNL11       0.1728
     34 H           0.8660    3.0136   -0.0133 H       1  UNL11       0.1731
     35 H           2.1158   -0.1949    0.8899 H       1  UNL11       0.0626
     36 H           3.2412   -2.0227    1.9765 H       1  UNL11       0.0646
     37 H           4.7520    0.7477    4.9275 H       1  UNL11       0.0646
     38 H           3.6181    2.5517    3.8077 H       1  UNL11       0.0626
@<TRIPOS>BOND
     1     1     2    2
     2     2     3    1
     3     2    15   am
     4     3     4    1
     5     3    26    1
     6     3    27    1
     7     4     5    2
     8     5     6    1
     9     6     7   ar
    10     7     8   ar
    11     7    28    1
    12     8     9   ar
    13     8    29    1
    14     9    10   ar
    15     9    30    1
    16    10    11   ar
    17    10    31    1
    18    11    12    1
    19    11     6   ar
    20    12    13    2
    21    12    14   am
    22    14     4    1
    23    14    32    1
    24    15    16    1
    25    15    33    1
    26    16    17   am
    27    16    34    1
    28    17    18    2
    29    17    19    1
    30    19    20   ar
    31    20    21   ar
    32    20    35    1
    33    21    22   ar
    34    21    36    1
    35    22    23    1
    36    22    24   ar
    37    24    25   ar
    38    24    37    1
    39    25    19   ar
    40    25    38    1
@<TRIPOS>MOLECULE
*****
 38 40 0 0 0
SMALL
GASTEIGER

@<TRIPOS>ATOM
      1 O           0.0532   -0.7386   -1.2761 O.2     1  UNL11      -0.2737
      2 C           0.0043    0.4506   -0.8680 C.2     1  UNL11       0.2407
      3 C          -1.1531    1.3541   -1.1050 C.3     1  UNL11       0.1288
      4 C          -2.4269    0.9092   -0.5427 C.2     1  UNL11       0.3035
      5 N          -3.0235   -0.2508   -0.8629 N.2     1  UNL11      -0.0449
      6 C          -4.2074   -0.6288   -0.3721 C.ar    1  UNL11       0.1904
      7 C          -4.8689   -1.7900   -0.6702 C.ar    1  UNL11      -0.0100
      8 C          -6.0966   -2.1090   -0.1350 C.ar    1  UNL11      -0.0576
      9 C          -6.6987   -1.2502    0.7306 C.ar    1  UNL11      -0.0607
     10 C          -6.0649   -0.0665    1.0579 C.ar    1  UNL11      -0.0432
     11 C          -4.8358    0.2417    0.5141 C.ar    1  UNL11       0.1121
     12 C          -4.2119    1.4403    0.8438 C.2     1  UNL11       0.3368
     13 O          -4.7688    2.2509    1.6539 O.2     1  UNL11      -0.2416
     14 N          -3.0410    1.7511    0.3220 N.am    1  UNL11      -0.1698
     15 N           1.1552    0.9193   -0.1407 N.am    1  UNL11      -0.2337
     16 N           1.3099    2.1815    0.4086 N.am    1  UNL11      -0.2304
     17 C           0.6684    3.2905   -0.1933 C.2     1  UNL11       0.2601
     18 O           0.8654    4.4296    0.3581 O.2     1  UNL11      -0.2687
     19 C          -0.1710    3.2443   -1.3527 C.ar    1  UNL11       0.0383
     20 C          -1.1921    4.1670   -1.4727 C.ar    1  UNL11      -0.0469
     21 C          -2.0337    4.1851   -2.5495 C.ar    1  UNL11      -0.0257
     22 C          -1.8283    3.2367   -3.5283 C.ar    1  UNL11       0.1234
     23 F          -2.6623    3.2490   -4.6067 F       1  UNL11      -0.2055
     24 C          -0.8255    2.3090   -3.4354 C.ar    1  UNL11      -0.0257
     25 C           0.0044    2.3222   -2.3340 C.ar    1  UNL11      -0.0469
     26 H          -0.9023    2.3846   -0.7157 H       1  UNL11       0.0483
     27 H          -1.2069    1.5031   -2.2165 H       1  UNL11       0.0483
     28 H          -4.4134   -2.5002   -1.3685 H       1  UNL11       0.0661
     29 H          -6.5888   -3.0325   -0.3864 H       1  UNL11       0.0619
     30 H          -7.6674   -1.4399    1.1918 H       1  UNL11       0.0618
     31 H          -6.5235    0.6379    1.7459 H       1  UNL11       0.0627
     32 H          -2.6173    2.6700    0.6042 H       1  UNL11       0.3013
     33 H           1.9399    0.2055   -0.0372 H       1  UNL11       0.1728
     34 H           1.8834    2.3375    1.2536 H       1  UNL11       0.1731
     35 H          -1.3431    4.9146   -0.6859 H       1  UNL11       0.0626
     36 H          -2.8126    4.9328   -2.5907 H       1  UNL11       0.0646
     37 H          -0.6584    1.5523   -4.2025 H       1  UNL11       0.0646
     38 H           0.7967    1.5712   -2.2850 H       1  UNL11       0.0626
@<TRIPOS>BOND
     1     1     2    2
     2     2     3    1
     3     2    15   am
     4     3     4    1
     5     3    26    1
     6     3    27    1
     7     4     5    2
     8     5     6    1
     9     6     7   ar
    10     7     8   ar
    11     7    28    1
    12     8     9   ar
    13     8    29    1
    14     9    10   ar
    15     9    30    1
    16    10    11   ar
    17    10    31    1
    18    11    12    1
    19    11     6   ar
    20    12    13    2
    21    12    14   am
    22    14     4    1
    23    14    32    1
    24    15    16    1
    25    15    33    1
    26    16    17   am
    27    16    34    1
    28    17    18    2
    29    17    19    1
    30    19    20   ar
    31    20    21   ar
    32    20    35    1
    33    21    22   ar
    34    21    36    1
    35    22    23    1
    36    22    24   ar
    37    24    25   ar
    38    24    37    1
    39    25    19   ar
    40    25    38    1
@<TRIPOS>MOLECULE
*****
 38 40 0 0 0
SMALL
GASTEIGER

@<TRIPOS>ATOM
      1 O           0.0532   -0.7386   -1.2761 O.2     1  UNL11      -0.2737
      2 C           0.0043    0.4506   -0.8680 C.2     1  UNL11       0.2407
      3 C          -1.1531    1.3541   -1.1050 C.3     1  UNL11       0.1288
      4 C          -2.2634    0.7737   -1.8580 C.2     1  UNL11       0.3035
      5 N          -3.3012    0.1361   -1.2918 N.2     1  UNL11      -0.0449
      6 C          -4.2907   -0.4250   -1.9929 C.ar    1  UNL11       0.1904
      7 C          -5.3649   -1.0968   -1.4737 C.ar    1  UNL11      -0.0100
      8 C          -6.3432   -1.6627   -2.2598 C.ar    1  UNL11      -0.0576
      9 C          -6.2623   -1.5629   -3.6135 C.ar    1  UNL11      -0.0607
     10 C          -5.1935   -0.8932   -4.1786 C.ar    1  UNL11      -0.0432
     11 C          -4.2197   -0.3316   -3.3801 C.ar    1  UNL11       0.1121
     12 C          -3.1438    0.3320   -3.9605 C.2     1  UNL11       0.3368
     13 O          -3.0599    0.4303   -5.2281 O.2     1  UNL11      -0.2416
     14 N          -2.2005    0.8641   -3.2076 N.am    1  UNL11      -0.1698
     15 N           1.1552    0.9193   -0.1407 N.am    1  UNL11      -0.2337
     16 N           2.2929    0.1813    0.1421 N.am    1  UNL11      -0.2304
     17 C           2.7004   -0.8443   -0.7442 C.2     1  UNL11       0.2601
     18 O           3.7527   -1.4958   -0.4147 O.2     1  UNL11      -0.2687
     19 C           2.0416   -1.2088   -1.9624 C.ar    1  UNL11       0.0383
     20 C           2.1077   -2.5214   -2.3882 C.ar    1  UNL11      -0.0469
     21 C           1.5048   -2.9441   -3.5397 C.ar    1  UNL11      -0.0257
     22 C           0.8177   -2.0029   -4.2757 C.ar    1  UNL11       0.1234
     23 F           0.2118   -2.4167   -5.4248 F       1  UNL11      -0.2055
     24 C           0.7367   -0.6948   -3.8791 C.ar    1  UNL11      -0.0257
     25 C           1.3575   -0.3055   -2.7108 C.ar    1  UNL11      -0.0469
     26 H          -1.5264    1.7433   -0.1123 H       1  UNL11       0.0483
     27 H          -0.7343    2.2699   -1.6014 H       1  UNL11       0.0483
     28 H          -5.4563   -1.1997   -0.3871 H       1  UNL11       0.0661
     29 H          -7.1779   -2.1809   -1.8202 H       1  UNL11       0.0619
     30 H          -7.0009   -1.9851   -4.2942 H       1  UNL11       0.0618
     31 H          -5.1036   -0.7992   -5.2570 H       1  UNL11       0.0627
     32 H          -1.4102    1.3512   -3.6994 H       1  UNL11       0.3013
     33 H           1.0902    1.9280    0.1974 H       1  UNL11       0.1728
     34 H           2.8584    0.3612    0.9878 H       1  UNL11       0.1731
     35 H           2.6582   -3.2580   -1.7924 H       1  UNL11       0.0626
     36 H           1.5875   -3.9841   -3.8208 H       1  UNL11       0.0646
     37 H           0.1993    0.0574   -4.4572 H       1  UNL11       0.0646
     38 H           1.2770    0.7440   -2.4173 H       1  UNL11       0.0626
@<TRIPOS>BOND
     1     1     2    2
     2     2     3    1
     3     2    15   am
     4     3     4    1
     5     3    26    1
     6     3    27    1
     7     4     5    2
     8     5     6    1
     9     6     7   ar
    10     7     8   ar
    11     7    28    1
    12     8     9   ar
    13     8    29    1
    14     9    10   ar
    15     9    30    1
    16    10    11   ar
    17    10    31    1
    18    11    12    1
    19    11     6   ar
    20    12    13    2
    21    12    14   am
    22    14     4    1
    23    14    32    1
    24    15    16    1
    25    15    33    1
    26    16    17   am
    27    16    34    1
    28    17    18    2
    29    17    19    1
    30    19    20   ar
    31    20    21   ar
    32    20    35    1
    33    21    22   ar
    34    21    36    1
    35    22    23    1
    36    22    24   ar
    37    24    25   ar
    38    24    37    1
    39    25    19   ar
    40    25    38    1
@<TRIPOS>MOLECULE
*****
 38 40 0 0 0
SMALL
GASTEIGER

@<TRIPOS>ATOM
      1 O           0.0532   -0.7386   -1.2761 O.2     1  UNL11      -0.2737
      2 C           0.0043    0.4506   -0.8680 C.2     1  UNL11       0.2407
      3 C          -1.1531    1.3541   -1.1050 C.3     1  UNL11       0.1288
      4 C          -1.0907    2.1527   -2.3277 C.2     1  UNL11       0.3035
      5 N          -0.5445    3.3778   -2.3960 N.2     1  UNL11      -0.0449
      6 C          -0.5285    4.1147   -3.5105 C.ar    1  UNL11       0.1904
      7 C           0.0010    5.3711   -3.6375 C.ar    1  UNL11      -0.0100
      8 C          -0.0299    6.0790   -4.8179 C.ar    1  UNL11      -0.0576
      9 C          -0.6048    5.5278   -5.9200 C.ar    1  UNL11      -0.0607
     10 C          -1.1516    4.2615   -5.8346 C.ar    1  UNL11      -0.0432
     11 C          -1.1151    3.5632   -4.6461 C.ar    1  UNL11       0.1121
     12 C          -1.6769    2.2932   -4.5699 C.2     1  UNL11       0.3368
     13 O          -2.2178    1.7689   -5.5976 O.2     1  UNL11      -0.2416
     14 N          -1.6575    1.6196   -3.4359 N.am    1  UNL11      -0.1698
     15 N           1.1552    0.9193   -0.1407 N.am    1  UNL11      -0.2337
     16 N           1.3099    2.1815    0.4086 N.am    1  UNL11      -0.2304
     17 C           0.6684    3.2905   -0.1933 C.2     1  UNL11       0.2601
     18 O          -0.0328    3.0446   -1.2365 O.2     1  UNL11      -0.2687
     19 C           0.7375    4.6464    0.2625 C.ar    1  UNL11       0.0383
     20 C          -0.3417    5.4797    0.0394 C.ar    1  UNL11      -0.0469
     21 C          -0.3491    6.7850    0.4446 C.ar    1  UNL11      -0.0257
     22 C           0.7739    7.2519    1.0932 C.ar    1  UNL11       0.1234
     23 F           0.7739    8.5524    1.5023 F       1  UNL11      -0.2055
     24 C           1.8587    6.4495    1.3266 C.ar    1  UNL11      -0.0257
     25 C           1.8294    5.1373    0.9035 C.ar    1  UNL11      -0.0469
     26 H          -2.1046    0.7451   -1.0941 H       1  UNL11       0.0483
     27 H          -1.2424    1.9907   -0.1845 H       1  UNL11       0.0483
     28 H           0.4662    5.8453   -2.7668 H       1  UNL11       0.0661
     29 H           0.3993    7.0637   -4.8861 H       1  UNL11       0.0619
     30 H          -0.6626    6.0306   -6.8849 H       1  UNL11       0.0618
     31 H          -1.6178    3.7977   -6.6992 H       1  UNL11       0.0627
     32 H          -2.0986    0.6662   -3.4352 H       1  UNL11       0.3013
     33 H           1.9399    0.2055   -0.0372 H       1  UNL11       0.1728
     34 H           1.8834    2.3375    1.2536 H       1  UNL11       0.1731
     35 H          -1.2271    5.0939   -0.4781 H       1  UNL11       0.0626
     36 H          -1.2230    7.3883    0.2456 H       1  UNL11       0.0646
     37 H           2.7529    6.8115    1.8348 H       1  UNL11       0.0646
     38 H           2.7079    4.5188    1.1027 H       1  UNL11       0.0626
@<TRIPOS>BOND
     1     1     2    2
     2     2     3    1
     3     2    15   am
     4     3     4    1
     5     3    26    1
     6     3    27    1
     7     4     5    2
     8     5     6    1
     9     6     7   ar
    10     7     8   ar
    11     7    28    1
    12     8     9   ar
    13     8    29    1
    14     9    10   ar
    15     9    30    1
    16    10    11   ar
    17    10    31    1
    18    11    12    1
    19    11     6   ar
    20    12    13    2
    21    12    14   am
    22    14     4    1
    23    14    32    1
    24    15    16    1
    25    15    33    1
    26    16    17   am
    27    16    34    1
    28    17    18    2
    29    17    19    1
    30    19    20   ar
    31    20    21   ar
    32    20    35    1
    33    21    22   ar
    34    21    36    1
    35    22    23    1
    36    22    24   ar
    37    24    25   ar
    38    24    37    1
    39    25    19   ar
    40    25    38    1
@<TRIPOS>MOLECULE
*****
 38 40 0 0 0
SMALL
GASTEIGER

@<TRIPOS>ATOM
      1 O           0.0532   -0.7386   -1.2761 O.2     1  UNL11      -0.2737
      2 C           0.0043    0.4506   -0.8680 C.2     1  UNL11       0.2407
      3 C          -1.1531    1.3541   -1.1050 C.3     1  UNL11       0.1288
      4 C          -1.0907    2.1527   -2.3277 C.2     1  UNL11       0.3035
      5 N          -1.6452    3.3691   -2.4579 N.2     1  UNL11      -0.0449
      6 C          -1.6156    4.0731   -3.5932 C.ar    1  UNL11       0.1904
      7 C          -2.1721    5.3087   -3.7892 C.ar    1  UNL11      -0.0100
      8 C          -2.1140    5.9717   -4.9943 C.ar    1  UNL11      -0.0576
      9 C          -1.4810    5.3957   -6.0510 C.ar    1  UNL11      -0.0607
     10 C          -0.9060    4.1486   -5.8958 C.ar    1  UNL11      -0.0432
     11 C          -0.9720    3.4946   -4.6837 C.ar    1  UNL11       0.1121
     12 C          -0.3976    2.2358   -4.5421 C.2     1  UNL11       0.3368
     13 O           0.1975    1.6885   -5.5269 O.2     1  UNL11      -0.2416
     14 N          -0.4634    1.5957   -3.3907 N.am    1  UNL11      -0.1698
     15 N           1.1552    0.9193   -0.1407 N.am    1  UNL11      -0.2337
     16 N           1.3099    2.1815    0.4086 N.am    1  UNL11      -0.2304
     17 C           2.6037    2.7461    0.5126 C.2     1  UNL11       0.2601
     18 O           3.5731    2.0303    0.0787 O.2     1  UNL11      -0.2687
     19 C           2.9137    4.0348    1.0552 C.ar    1  UNL11       0.0383
     20 C           4.0076    4.7193    0.5619 C.ar    1  UNL11      -0.0469
     21 C           4.3659    5.9525    1.0298 C.ar    1  UNL11      -0.0257
     22 C           3.5882    6.5005    2.0271 C.ar    1  UNL11       0.1234
     23 F           3.9377    7.7313    2.4982 F       1  UNL11      -0.2055
     24 C           2.4995    5.8446    2.5362 C.ar    1  UNL11      -0.0257
     25 C           2.1684    4.6017    2.0386 C.ar    1  UNL11      -0.0469
     26 H          -2.1046    0.7451   -1.0941 H       1  UNL11       0.0483
     27 H          -1.2424    1.9907   -0.1845 H       1  UNL11       0.0483
     28 H          -2.6941    5.7972   -2.9594 H       1  UNL11       0.0661
     29 H          -2.5581    6.9446   -5.1147 H       1  UNL11       0.0619
     30 H          -1.3963    5.8640   -7.0311 H       1  UNL11       0.0618
     31 H          -0.3949    3.6651   -6.7234 H       1  UNL11       0.0627
     32 H          -0.0146    0.6472   -3.3413 H       1  UNL11       0.3013
     33 H           1.9399    0.2055   -0.0372 H       1  UNL11       0.1728
     34 H           0.5005    2.7281    0.7456 H       1  UNL11       0.1731
     35 H           4.6164    4.2702   -0.2308 H       1  UNL11       0.0626
     36 H           5.2296    6.4419    0.6033 H       1  UNL11       0.0646
     37 H           1.8813    6.2683    3.3282 H       1  UNL11       0.0646
     38 H           1.2948    4.1003    2.4622 H       1  UNL11       0.0626
@<TRIPOS>BOND
     1     1     2    2
     2     2     3    1
     3     2    15   am
     4     3     4    1
     5     3    26    1
     6     3    27    1
     7     4     5    2
     8     5     6    1
     9     6     7   ar
    10     7     8   ar
    11     7    28    1
    12     8     9   ar
    13     8    29    1
    14     9    10   ar
    15     9    30    1
    16    10    11   ar
    17    10    31    1
    18    11    12    1
    19    11     6   ar
    20    12    13    2
    21    12    14   am
    22    14     4    1
    23    14    32    1
    24    15    16    1
    25    15    33    1
    26    16    17   am
    27    16    34    1
    28    17    18    2
    29    17    19    1
    30    19    20   ar
    31    20    21   ar
    32    20    35    1
    33    21    22   ar
    34    21    36    1
    35    22    23    1
    36    22    24   ar
    37    24    25   ar
    38    24    37    1
    39    25    19   ar
    40    25    38    1
@<TRIPOS>MOLECULE
*****
 38 40 0 0 0
SMALL
GASTEIGER

@<TRIPOS>ATOM
      1 O           0.0532   -0.7386   -1.2761 O.2     1  UNL11      -0.2737
      2 C           0.0043    0.4506   -0.8680 C.2     1  UNL11       0.2407
      3 C          -1.1531    1.3541   -1.1050 C.3     1  UNL11       0.1288
      4 C          -0.8587    2.5739   -1.8547 C.2     1  UNL11       0.3035
      5 N          -0.3771    2.5856   -3.1085 N.2     1  UNL11      -0.0449
      6 C          -0.0746    3.7067   -3.7696 C.ar    1  UNL11       0.1904
      7 C           0.4296    3.7808   -5.0405 C.ar    1  UNL11      -0.0100
      8 C           0.7313    4.9747   -5.6561 C.ar    1  UNL11      -0.0576
      9 C           0.5277    6.1451   -4.9943 C.ar    1  UNL11      -0.0607
     10 C           0.0205    6.1147   -3.7090 C.ar    1  UNL11      -0.0432
     11 C          -0.2767    4.9122   -3.1033 C.ar    1  UNL11       0.1121
     12 C          -0.7780    4.8938   -1.8060 C.2     1  UNL11       0.3368
     13 O          -0.9718    5.9856   -1.1784 O.2     1  UNL11      -0.2416
     14 N          -1.0562    3.7494   -1.2121 N.am    1  UNL11      -0.1698
     15 N           1.1552    0.9193   -0.1407 N.am    1  UNL11      -0.2337
     16 N           1.3099    2.1815    0.4086 N.am    1  UNL11      -0.2304
     17 C           0.6684    3.2905   -0.1933 C.2     1  UNL11       0.2601
     18 O          -0.0328    3.0446   -1.2365 O.2     1  UNL11      -0.2687
     19 C           0.7375    4.6464    0.2625 C.ar    1  UNL11       0.0383
     20 C           1.4879    4.9337    1.3863 C.ar    1  UNL11      -0.0469
     21 C           1.6009    6.2029    1.8809 C.ar    1  UNL11      -0.0257
     22 C           0.9302    7.2040    1.2118 C.ar    1  UNL11       0.1234
     23 F           1.0392    8.4733    1.6975 F       1  UNL11      -0.2055
     24 C           0.1779    6.9486    0.0966 C.ar    1  UNL11      -0.0257
     25 C           0.0879    5.6552   -0.3735 C.ar    1  UNL11      -0.0469
     26 H          -1.9729    0.7750   -1.6236 H       1  UNL11       0.0483
     27 H          -1.5891    1.5706   -0.0932 H       1  UNL11       0.0483
     28 H           0.6103    2.8558   -5.5983 H       1  UNL11       0.0661
     29 H           1.1226    4.9992   -6.6584 H       1  UNL11       0.0619
     30 H           0.7428    7.1242   -5.4212 H       1  UNL11       0.0618
     31 H          -0.1510    7.0345   -3.1572 H       1  UNL11       0.0627
     32 H          -1.4298    3.7948   -0.2313 H       1  UNL11       0.3013
     33 H           1.9399    0.2055   -0.0372 H       1  UNL11       0.1728
     34 H           1.8834    2.3375    1.2536 H       1  UNL11       0.1731
     35 H           2.0150    4.1269    1.9076 H       1  UNL11       0.0626
     36 H           2.2046    6.3681    2.7615 H       1  UNL11       0.0646
     37 H          -0.3596    7.7334   -0.4364 H       1  UNL11       0.0646
     38 H          -0.5186    5.4790   -1.2652 H       1  UNL11       0.0626
@<TRIPOS>BOND
     1     1     2    2
     2     2     3    1
     3     2    15   am
     4     3     4    1
     5     3    26    1
     6     3    27    1
     7     4     5    2
     8     5     6    1
     9     6     7   ar
    10     7     8   ar
    11     7    28    1
    12     8     9   ar
    13     8    29    1
    14     9    10   ar
    15     9    30    1
    16    10    11   ar
    17    10    31    1
    18    11    12    1
    19    11     6   ar
    20    12    13    2
    21    12    14   am
    22    14     4    1
    23    14    32    1
    24    15    16    1
    25    15    33    1
    26    16    17   am
    27    16    34    1
    28    17    18    2
    29    17    19    1
    30    19    20   ar
    31    20    21   ar
    32    20    35    1
    33    21    22   ar
    34    21    36    1
    35    22    23    1
    36    22    24   ar
    37    24    25   ar
    38    24    37    1
    39    25    19   ar
    40    25    38    1
@<TRIPOS>MOLECULE
*****
 38 40 0 0 0
SMALL
GASTEIGER

@<TRIPOS>ATOM
      1 O           0.0532   -0.7386   -1.2761 O.2     1  UNL11      -0.2737
      2 C           0.0043    0.4506   -0.8680 C.2     1  UNL11       0.2407
      3 C          -1.1531    1.3541   -1.1050 C.3     1  UNL11       0.1288
      4 C          -1.3883    2.3628   -0.0736 C.2     1  UNL11       0.3035
      5 N          -2.3927    3.2537   -0.1113 N.2     1  UNL11      -0.0449
      6 C          -2.5745    4.1968    0.8176 C.ar    1  UNL11       0.1904
      7 C          -3.5695    5.1374    0.8262 C.ar    1  UNL11      -0.0100
      8 C          -3.6881    6.0906    1.8125 C.ar    1  UNL11      -0.0576
      9 C          -2.7909    6.1193    2.8340 C.ar    1  UNL11      -0.0607
     10 C          -1.7706    5.1876    2.8630 C.ar    1  UNL11      -0.0432
     11 C          -1.6623    4.2387    1.8684 C.ar    1  UNL11       0.1121
     12 C          -0.6257    3.3119    1.9034 C.2     1  UNL11       0.3368
     13 O           0.2195    3.3315    2.8567 O.2     1  UNL11      -0.2416
     14 N          -0.5054    2.4060    0.9522 N.am    1  UNL11      -0.1698
     15 N           1.1552    0.9193   -0.1407 N.am    1  UNL11      -0.2337
     16 N           1.3099    2.1815    0.4086 N.am    1  UNL11      -0.2304
     17 C           0.6684    3.2905   -0.1933 C.2     1  UNL11       0.2601
     18 O           0.8654    4.4296    0.3581 O.2     1  UNL11      -0.2687
     19 C          -0.1710    3.2443   -1.3527 C.ar    1  UNL11       0.0383
     20 C          -0.7143    4.4219   -1.8288 C.ar    1  UNL11      -0.0469
     21 C          -1.5244    4.4570   -2.9291 C.ar    1  UNL11      -0.0257
     22 C          -1.7872    3.2595   -3.5589 C.ar    1  UNL11       0.1234
     23 F          -2.5930    3.2859   -4.6584 F       1  UNL11      -0.2055
     24 C          -1.2641    2.0769   -3.1086 C.ar    1  UNL11      -0.0257
     25 C          -0.4502    2.0810   -1.9953 C.ar    1  UNL11      -0.0469
     26 H          -1.0295    1.8560   -2.1096 H       1  UNL11       0.0483
     27 H          -2.0419    0.6852   -1.2572 H       1  UNL11       0.0483
     28 H          -4.3047    5.1448    0.0144 H       1  UNL11       0.0661
     29 H          -4.4848    6.8139    1.7926 H       1  UNL11       0.0619
     30 H          -2.8263    6.8438    3.6470 H       1  UNL11       0.0618
     31 H          -1.0398    5.1882    3.6667 H       1  UNL11       0.0627
     32 H           0.2976    1.7329    1.0278 H       1  UNL11       0.3013
     33 H           1.9399    0.2055   -0.0372 H       1  UNL11       0.1728
     34 H           1.8834    2.3375    1.2536 H       1  UNL11       0.1731
     35 H          -0.4964    5.3659   -1.3169 H       1  UNL11       0.0626
     36 H          -1.9177    5.4082   -3.2575 H       1  UNL11       0.0646
     37 H          -1.4702    1.1245   -3.5977 H       1  UNL11       0.0646
     38 H          -0.0456    1.1238   -1.6573 H       1  UNL11       0.0626
@<TRIPOS>BOND
     1     1     2    2
     2     2     3    1
     3     2    15   am
     4     3     4    1
     5     3    26    1
     6     3    27    1
     7     4     5    2
     8     5     6    1
     9     6     7   ar
    10     7     8   ar
    11     7    28    1
    12     8     9   ar
    13     8    29    1
    14     9    10   ar
    15     9    30    1
    16    10    11   ar
    17    10    31    1
    18    11    12    1
    19    11     6   ar
    20    12    13    2
    21    12    14   am
    22    14     4    1
    23    14    32    1
    24    15    16    1
    25    15    33    1
    26    16    17   am
    27    16    34    1
    28    17    18    2
    29    17    19    1
    30    19    20   ar
    31    20    21   ar
    32    20    35    1
    33    21    22   ar
    34    21    36    1
    35    22    23    1
    36    22    24   ar
    37    24    25   ar
    38    24    37    1
    39    25    19   ar
    40    25    38    1
@<TRIPOS>MOLECULE
*****
 38 40 0 0 0
SMALL
GASTEIGER

@<TRIPOS>ATOM
      1 O           0.0532   -0.7386   -1.2761 O.2     1  UNL11      -0.2737
      2 C           0.0043    0.4506   -0.8680 C.2     1  UNL11       0.2407
      3 C          -1.1531    1.3541   -1.1050 C.3     1  UNL11       0.1288
      4 C          -2.1906    1.3345   -0.0755 C.2     1  UNL11       0.3035
      5 N          -2.5585    2.4109    0.6387 N.2     1  UNL11      -0.0449
      6 C          -3.4808    2.3723    1.6048 C.ar    1  UNL11       0.1904
      7 C          -3.8872    3.4305    2.3728 C.ar    1  UNL11      -0.0100
      8 C          -4.8366    3.3140    3.3630 C.ar    1  UNL11      -0.0576
      9 C          -5.4112    2.1060    3.6076 C.ar    1  UNL11      -0.0607
     10 C          -5.0289    1.0117    2.8551 C.ar    1  UNL11      -0.0432
     11 C          -4.0761    1.1415    1.8669 C.ar    1  UNL11       0.1121
     12 C          -3.6927    0.0310    1.1223 C.2     1  UNL11       0.3368
     13 O          -4.2258   -1.1048    1.3448 O.2     1  UNL11      -0.2416
     14 N          -2.7748    0.1403    0.1815 N.am    1  UNL11      -0.1698
     15 N           1.1552    0.9193   -0.1407 N.am    1  UNL11      -0.2337
     16 N           1.3099    2.1815    0.4086 N.am    1  UNL11      -0.2304
     17 C           0.6684    3.2905   -0.1933 C.2     1  UNL11       0.2601
     18 O           0.8654    4.4296    0.3581 O.2     1  UNL11      -0.2687
     19 C          -0.1710    3.2443   -1.3527 C.ar    1  UNL11       0.0383
     20 C          -1.1921    4.1670   -1.4727 C.ar    1  UNL11      -0.0469
     21 C          -2.0337    4.1851   -2.5495 C.ar    1  UNL11      -0.0257
     22 C          -1.8283    3.2367   -3.5283 C.ar    1  UNL11       0.1234
     23 F          -2.6623    3.2490   -4.6067 F       1  UNL11      -0.2055
     24 C          -0.8255    2.3090   -3.4354 C.ar    1  UNL11      -0.0257
     25 C           0.0044    2.3222   -2.3340 C.ar    1  UNL11      -0.0469
     26 H          -0.7745    2.4091   -1.2464 H       1  UNL11       0.0483
     27 H          -1.5537    1.0846   -2.1187 H       1  UNL11       0.0483
     28 H          -3.4395    4.4158    2.2045 H       1  UNL11       0.0661
     29 H          -5.1377    4.1667    3.9466 H       1  UNL11       0.0619
     30 H          -6.1687    1.9430    4.3735 H       1  UNL11       0.0618
     31 H          -5.4710    0.0350    3.0299 H       1  UNL11       0.0627
     32 H          -2.5222   -0.7313   -0.3477 H       1  UNL11       0.3013
     33 H           1.9399    0.2055   -0.0372 H       1  UNL11       0.1728
     34 H           1.8834    2.3375    1.2536 H       1  UNL11       0.1731
     35 H          -1.3431    4.9146   -0.6859 H       1  UNL11       0.0626
     36 H          -2.8126    4.9328   -2.5907 H       1  UNL11       0.0646
     37 H          -0.6584    1.5523   -4.2025 H       1  UNL11       0.0646
     38 H           0.7967    1.5712   -2.2850 H       1  UNL11       0.0626
@<TRIPOS>BOND
     1     1     2    2
     2     2     3    1
     3     2    15   am
     4     3     4    1
     5     3    26    1
     6     3    27    1
     7     4     5    2
     8     5     6    1
     9     6     7   ar
    10     7     8   ar
    11     7    28    1
    12     8     9   ar
    13     8    29    1
    14     9    10   ar
    15     9    30    1
    16    10    11   ar
    17    10    31    1
    18    11    12    1
    19    11     6   ar
    20    12    13    2
    21    12    14   am
    22    14     4    1
    23    14    32    1
    24    15    16    1
    25    15    33    1
    26    16    17   am
    27    16    34    1
    28    17    18    2
    29    17    19    1
    30    19    20   ar
    31    20    21   ar
    32    20    35    1
    33    21    22   ar
    34    21    36    1
    35    22    23    1
    36    22    24   ar
    37    24    25   ar
    38    24    37    1
    39    25    19   ar
    40    25    38    1
@<TRIPOS>MOLECULE
*****
 38 40 0 0 0
SMALL
GASTEIGER

@<TRIPOS>ATOM
      1 O           0.0532   -0.7386   -1.2761 O.2     1  UNL11      -0.2737
      2 C           0.0043    0.4506   -0.8680 C.2     1  UNL11       0.2407
      3 C          -1.1531    1.3541   -1.1050 C.3     1  UNL11       0.1288
      4 C          -0.8325    2.7762   -1.2117 C.2     1  UNL11       0.3035
      5 N          -1.5297    3.6480   -1.9587 N.2     1  UNL11      -0.0449
      6 C          -1.2036    4.9381   -2.0796 C.ar    1  UNL11       0.1904
      7 C          -1.8666    5.8690   -2.8338 C.ar    1  UNL11      -0.0100
      8 C          -1.4646    7.1827   -2.9223 C.ar    1  UNL11      -0.0576
      9 C          -0.3647    7.5988   -2.2395 C.ar    1  UNL11      -0.0607
     10 C           0.3339    6.6908   -1.4665 C.ar    1  UNL11      -0.0432
     11 C          -0.0787    5.3775   -1.3871 C.ar    1  UNL11       0.1121
     12 C           0.6378    4.4706   -0.6133 C.2     1  UNL11       0.3368
     13 O           1.6697    4.8517    0.0298 O.2     1  UNL11      -0.2416
     14 N           0.2593    3.2093   -0.5378 N.am    1  UNL11      -0.1698
     15 N           1.1552    0.9193   -0.1407 N.am    1  UNL11      -0.2337
     16 N           2.2929    0.1813    0.1421 N.am    1  UNL11      -0.2304
     17 C           3.0270    0.4509    1.3219 C.2     1  UNL11       0.2601
     18 O           4.0755   -0.2592    1.5141 O.2     1  UNL11      -0.2687
     19 C           2.6986    1.4393    2.3048 C.ar    1  UNL11       0.0383
     20 C           3.7214    2.0371    3.0156 C.ar    1  UNL11      -0.0469
     21 C           3.4861    2.9877    3.9691 C.ar    1  UNL11      -0.0257
     22 C           2.1734    3.3364    4.2035 C.ar    1  UNL11       0.1234
     23 F           1.9301    4.2853    5.1518 F       1  UNL11      -0.2055
     24 C           1.1394    2.7597    3.5157 C.ar    1  UNL11      -0.0257
     25 C           1.4158    1.8043    2.5603 C.ar    1  UNL11      -0.0469
     26 H          -1.7016    1.0151   -2.0326 H       1  UNL11       0.0483
     27 H          -1.8846    1.1430   -0.2798 H       1  UNL11       0.0483
     28 H          -2.7531    5.5643   -3.4004 H       1  UNL11       0.0661
     29 H          -2.0105    7.8912   -3.5209 H       1  UNL11       0.0619
     30 H           0.0078    8.6224   -2.2632 H       1  UNL11       0.0618
     31 H           1.2163    6.9960   -0.9115 H       1  UNL11       0.0627
     32 H           0.8389    2.5680    0.0592 H       1  UNL11       0.3013
     33 H           1.0902    1.9280    0.1974 H       1  UNL11       0.1728
     34 H           2.6225   -0.5681   -0.4881 H       1  UNL11       0.1731
     35 H           4.7599    1.7489    2.8181 H       1  UNL11       0.0626
     36 H           4.3262    3.4230    4.4906 H       1  UNL11       0.0646
     37 H           0.0978    3.0260    3.6976 H       1  UNL11       0.0646
     38 H           0.5724    1.3603    2.0259 H       1  UNL11       0.0626
@<TRIPOS>BOND
     1     1     2    2
     2     2     3    1
     3     2    15   am
     4     3     4    1
     5     3    26    1
     6     3    27    1
     7     4     5    2
     8     5     6    1
     9     6     7   ar
    10     7     8   ar
    11     7    28    1
    12     8     9   ar
    13     8    29    1
    14     9    10   ar
    15     9    30    1
    16    10    11   ar
    17    10    31    1
    18    11    12    1
    19    11     6   ar
    20    12    13    2
    21    12    14   am
    22    14     4    1
    23    14    32    1
    24    15    16    1
    25    15    33    1
    26    16    17   am
    27    16    34    1
    28    17    18    2
    29    17    19    1
    30    19    20   ar
    31    20    21   ar
    32    20    35    1
    33    21    22   ar
    34    21    36    1
    35    22    23    1
    36    22    24   ar
    37    24    25   ar
    38    24    37    1
    39    25    19   ar
    40    25    38    1
@<TRIPOS>MOLECULE
*****
 38 40 0 0 0
SMALL
GASTEIGER

@<TRIPOS>ATOM
      1 O           0.0532   -0.7386   -1.2761 O.2     1  UNL11      -0.2737
      2 C           0.0043    0.4506   -0.8680 C.2     1  UNL11       0.2407
      3 C          -1.1531    1.3541   -1.1050 C.3     1  UNL11       0.1288
      4 C          -0.8587    2.5739   -1.8547 C.2     1  UNL11       0.3035
      5 N          -0.3771    2.5856   -3.1085 N.2     1  UNL11      -0.0449
      6 C          -0.0746    3.7067   -3.7696 C.ar    1  UNL11       0.1904
      7 C           0.4296    3.7808   -5.0405 C.ar    1  UNL11      -0.0100
      8 C           0.7313    4.9747   -5.6561 C.ar    1  UNL11      -0.0576
      9 C           0.5277    6.1451   -4.9943 C.ar    1  UNL11      -0.0607
     10 C           0.0205    6.1147   -3.7090 C.ar    1  UNL11      -0.0432
     11 C          -0.2767    4.9122   -3.1033 C.ar    1  UNL11       0.1121
     12 C          -0.7780    4.8938   -1.8060 C.2     1  UNL11       0.3368
     13 O          -0.9718    5.9856   -1.1784 O.2     1  UNL11      -0.2416
     14 N          -1.0562    3.7494   -1.2121 N.am    1  UNL11      -0.1698
     15 N           1.1552    0.9193   -0.1407 N.am    1  UNL11      -0.2337
     16 N           2.2929    0.1813    0.1421 N.am    1  UNL11      -0.2304
     17 C           2.1964   -1.2223    0.2970 C.2     1  UNL11       0.2601
     18 O           3.2842   -1.8403    0.5711 O.2     1  UNL11      -0.2687
     19 C           0.9986   -1.9977    0.1746 C.ar    1  UNL11       0.0383
     20 C           0.8749   -3.1541    0.9204 C.ar    1  UNL11      -0.0469
     21 C          -0.2376   -3.9456    0.8567 C.ar    1  UNL11      -0.0257
     22 C          -1.2491   -3.5471    0.0094 C.ar    1  UNL11       0.1234
     23 F          -2.3631   -4.3300   -0.0588 F       1  UNL11      -0.2055
     24 C          -1.1535   -2.4069   -0.7428 C.ar    1  UNL11      -0.0257
     25 C          -0.0156   -1.6332   -0.6515 C.ar    1  UNL11      -0.0469
     26 H          -1.9729    0.7750   -1.6236 H       1  UNL11       0.0483
     27 H          -1.5891    1.5706   -0.0932 H       1  UNL11       0.0483
     28 H           0.6103    2.8558   -5.5983 H       1  UNL11       0.0661
     29 H           1.1226    4.9992   -6.6584 H       1  UNL11       0.0619
     30 H           0.7428    7.1242   -5.4212 H       1  UNL11       0.0618
     31 H          -0.1510    7.0345   -3.1572 H       1  UNL11       0.0627
     32 H          -1.4298    3.7948   -0.2313 H       1  UNL11       0.3013
     33 H           1.0902    1.9280    0.1974 H       1  UNL11       0.1728
     34 H           3.2181    0.6300    0.2420 H       1  UNL11       0.1731
     35 H           1.6879   -3.4580    1.5892 H       1  UNL11       0.0626
     36 H          -0.2797   -4.8368    1.4660 H       1  UNL11       0.0646
     37 H          -1.9465   -2.0864   -1.4190 H       1  UNL11       0.0646
     38 H           0.0348   -0.7285   -1.2623 H       1  UNL11       0.0626
@<TRIPOS>BOND
     1     1     2    2
     2     2     3    1
     3     2    15   am
     4     3     4    1
     5     3    26    1
     6     3    27    1
     7     4     5    2
     8     5     6    1
     9     6     7   ar
    10     7     8   ar
    11     7    28    1
    12     8     9   ar
    13     8    29    1
    14     9    10   ar
    15     9    30    1
    16    10    11   ar
    17    10    31    1
    18    11    12    1
    19    11     6   ar
    20    12    13    2
    21    12    14   am
    22    14     4    1
    23    14    32    1
    24    15    16    1
    25    15    33    1
    26    16    17   am
    27    16    34    1
    28    17    18    2
    29    17    19    1
    30    19    20   ar
    31    20    21   ar
    32    20    35    1
    33    21    22   ar
    34    21    36    1
    35    22    23    1
    36    22    24   ar
    37    24    25   ar
    38    24    37    1
    39    25    19   ar
    40    25    38    1
@<TRIPOS>MOLECULE
*****
 38 40 0 0 0
SMALL
GASTEIGER

@<TRIPOS>ATOM
      1 O           0.0532   -0.7386   -1.2761 O.2     1  UNL11      -0.2737
      2 C           0.0043    0.4506   -0.8680 C.2     1  UNL11       0.2407
      3 C          -1.1531    1.3541   -1.1050 C.3     1  UNL11       0.1288
      4 C          -1.9103    1.1022   -2.3297 C.2     1  UNL11       0.3035
      5 N          -3.2153    0.7850   -2.3524 N.2     1  UNL11      -0.0449
      6 C          -3.8877    0.5182   -3.4759 C.ar    1  UNL11       0.1904
      7 C          -5.2113    0.1780   -3.5605 C.ar    1  UNL11      -0.0100
      8 C          -5.8371   -0.0972   -4.7556 C.ar    1  UNL11      -0.0576
      9 C          -5.1316   -0.0340   -5.9164 C.ar    1  UNL11      -0.0607
     10 C          -3.7926    0.3054   -5.8753 C.ar    1  UNL11      -0.0432
     11 C          -3.1774    0.5777   -4.6716 C.ar    1  UNL11       0.1121
     12 C          -1.8269    0.9091   -4.6419 C.2     1  UNL11       0.3368
     13 O          -1.1581    0.9706   -5.7247 O.2     1  UNL11      -0.2416
     14 N          -1.2247    1.1615   -3.4958 N.am    1  UNL11      -0.1698
     15 N           1.1552    0.9193   -0.1407 N.am    1  UNL11      -0.2337
     16 N           2.2929    0.1813    0.1421 N.am    1  UNL11      -0.2304
     17 C           3.5419    0.8371    0.2582 C.2     1  UNL11       0.2601
     18 O           4.5541    0.0928    0.5070 O.2     1  UNL11      -0.2687
     19 C           3.7640    2.2453    0.1217 C.ar    1  UNL11       0.0383
     20 C           5.0508    2.7318    0.2491 C.ar    1  UNL11      -0.0469
     21 C           5.3405    4.0624    0.1319 C.ar    1  UNL11      -0.0257
     22 C           4.2900    4.9182   -0.1209 C.ar    1  UNL11       0.1234
     23 F           4.5707    6.2469   -0.2411 F       1  UNL11      -0.2055
     24 C           3.0046    4.4646   -0.2504 C.ar    1  UNL11      -0.0257
     25 C           2.7509    3.1147   -0.1264 C.ar    1  UNL11      -0.0469
     26 H          -1.8441    1.3102   -0.2123 H       1  UNL11       0.0483
     27 H          -0.7437    2.3988   -1.0645 H       1  UNL11       0.0483
     28 H          -5.8059    0.1129   -2.6430 H       1  UNL11       0.0661
     29 H          -6.8808   -0.3577   -4.7887 H       1  UNL11       0.0619
     30 H          -5.5634   -0.2376   -6.8958 H       1  UNL11       0.0618
     31 H          -3.2052    0.3624   -6.7872 H       1  UNL11       0.0627
     32 H          -0.2032    1.4040   -3.5323 H       1  UNL11       0.3013
     33 H           1.0902    1.9280    0.1974 H       1  UNL11       0.1728
     34 H           2.2550   -0.8426    0.2738 H       1  UNL11       0.1731
     35 H           5.8754    2.0390    0.4505 H       1  UNL11       0.0626
     36 H           6.3664    4.3845    0.2378 H       1  UNL11       0.0646
     37 H           2.1668    5.1346   -0.4459 H       1  UNL11       0.0646
     38 H           1.7165    2.7795   -0.2345 H       1  UNL11       0.0626
@<TRIPOS>BOND
     1     1     2    2
     2     2     3    1
     3     2    15   am
     4     3     4    1
     5     3    26    1
     6     3    27    1
     7     4     5    2
     8     5     6    1
     9     6     7   ar
    10     7     8   ar
    11     7    28    1
    12     8     9   ar
    13     8    29    1
    14     9    10   ar
    15     9    30    1
    16    10    11   ar
    17    10    31    1
    18    11    12    1
    19    11     6   ar
    20    12    13    2
    21    12    14   am
    22    14     4    1
    23    14    32    1
    24    15    16    1
    25    15    33    1
    26    16    17   am
    27    16    34    1
    28    17    18    2
    29    17    19    1
    30    19    20   ar
    31    20    21   ar
    32    20    35    1
    33    21    22   ar
    34    21    36    1
    35    22    23    1
    36    22    24   ar
    37    24    25   ar
    38    24    37    1
    39    25    19   ar
    40    25    38    1
@<TRIPOS>MOLECULE
*****
 38 40 0 0 0
SMALL
GASTEIGER

@<TRIPOS>ATOM
      1 O           0.0532   -0.7386   -1.2761 O.2     1  UNL11      -0.2737
      2 C           0.0043    0.4506   -0.8680 C.2     1  UNL11       0.2407
      3 C          -1.1531    1.3541   -1.1050 C.3     1  UNL11       0.1288
      4 C          -0.8587    2.5739   -1.8547 C.2     1  UNL11       0.3035
      5 N          -1.4334    2.8908   -3.0266 N.2     1  UNL11      -0.0449
      6 C          -1.1273    3.9897   -3.7224 C.ar    1  UNL11       0.1904
      7 C          -1.6687    4.3583   -4.9248 C.ar    1  UNL11      -0.0100
      8 C          -1.2946    5.5020   -5.5935 C.ar    1  UNL11      -0.0576
      9 C          -0.3488    6.3184   -5.0565 C.ar    1  UNL11      -0.0607
     10 C           0.2234    5.9827   -3.8442 C.ar    1  UNL11      -0.0432
     11 C          -0.1594    4.8337   -3.1849 C.ar    1  UNL11       0.1121
     12 C           0.4303    4.5015   -1.9698 C.2     1  UNL11       0.3368
     13 O           1.3174    5.2606   -1.4593 O.2     1  UNL11      -0.2416
     14 N           0.0801    3.3997   -1.3349 N.am    1  UNL11      -0.1698
     15 N           1.1552    0.9193   -0.1407 N.am    1  UNL11      -0.2337
     16 N           1.3099    2.1815    0.4086 N.am    1  UNL11      -0.2304
     17 C           2.6037    2.7461    0.5126 C.2     1  UNL11       0.2601
     18 O           2.6755    3.9098    1.0428 O.2     1  UNL11      -0.2687
     19 C           3.8227    2.1313    0.0801 C.ar    1  UNL11       0.0383
     20 C           3.7838    1.2527   -0.9853 C.ar    1  UNL11      -0.0469
     21 C           4.9052    0.6275   -1.4543 C.ar    1  UNL11      -0.0257
     22 C           6.0963    0.9057   -0.8190 C.ar    1  UNL11       0.1234
     23 F           7.2200    0.2876   -1.2817 F       1  UNL11      -0.2055
     24 C           6.1647    1.7707    0.2402 C.ar    1  UNL11      -0.0257
     25 C           5.0120    2.3833    0.6851 C.ar    1  UNL11      -0.0469
     26 H          -1.9729    0.7750   -1.6236 H       1  UNL11       0.0483
     27 H          -1.5891    1.5706   -0.0932 H       1  UNL11       0.0483
     28 H          -2.4289    3.7192   -5.3868 H       1  UNL11       0.0661
     29 H          -1.7427    5.7660   -6.5358 H       1  UNL11       0.0619
     30 H          -0.0072    7.2381   -5.5302 H       1  UNL11       0.0618
     31 H           0.9817    6.6163   -3.3929 H       1  UNL11       0.0627
     32 H           0.5598    3.1972   -0.4225 H       1  UNL11       0.3013
     33 H           1.9399    0.2055   -0.0372 H       1  UNL11       0.1728
     34 H           0.5005    2.7281    0.7456 H       1  UNL11       0.1731
     35 H           2.8291    1.0414   -1.4798 H       1  UNL11       0.0626
     36 H           4.8143   -0.0471   -2.2933 H       1  UNL11       0.0646
     37 H           7.1016    1.9932    0.7517 H       1  UNL11       0.0646
     38 H           5.0946    3.0693    1.5317 H       1  UNL11       0.0626
@<TRIPOS>BOND
     1     1     2    2
     2     2     3    1
     3     2    15   am
     4     3     4    1
     5     3    26    1
     6     3    27    1
     7     4     5    2
     8     5     6    1
     9     6     7   ar
    10     7     8   ar
    11     7    28    1
    12     8     9   ar
    13     8    29    1
    14     9    10   ar
    15     9    30    1
    16    10    11   ar
    17    10    31    1
    18    11    12    1
    19    11     6   ar
    20    12    13    2
    21    12    14   am
    22    14     4    1
    23    14    32    1
    24    15    16    1
    25    15    33    1
    26    16    17   am
    27    16    34    1
    28    17    18    2
    29    17    19    1
    30    19    20   ar
    31    20    21   ar
    32    20    35    1
    33    21    22   ar
    34    21    36    1
    35    22    23    1
    36    22    24   ar
    37    24    25   ar
    38    24    37    1
    39    25    19   ar
    40    25    38    1
@<TRIPOS>MOLECULE
*****
 38 40 0 0 0
SMALL
GASTEIGER

@<TRIPOS>ATOM
      1 O           0.0532   -0.7386   -1.2761 O.2     1  UNL11      -0.2737
      2 C           0.0043    0.4506   -0.8680 C.2     1  UNL11       0.2407
      3 C          -1.1531    1.3541   -1.1050 C.3     1  UNL11       0.1288
      4 C          -1.4877    1.5971   -2.5070 C.2     1  UNL11       0.3035
      5 N          -0.6398    2.1381   -3.3973 N.2     1  UNL11      -0.0449
      6 C          -0.9699    2.3919   -4.6669 C.ar    1  UNL11       0.1904
      7 C          -0.1550    2.9517   -5.6143 C.ar    1  UNL11      -0.0100
      8 C          -0.5682    3.1973   -6.9044 C.ar    1  UNL11      -0.0576
      9 C          -1.8359    2.8781   -7.2789 C.ar    1  UNL11      -0.0607
     10 C          -2.6911    2.3115   -6.3529 C.ar    1  UNL11      -0.0432
     11 C          -2.2653    2.0715   -5.0635 C.ar    1  UNL11       0.1121
     12 C          -3.1380    1.5093   -4.1378 C.2     1  UNL11       0.3368
     13 O          -4.3276    1.2071   -4.4799 O.2     1  UNL11      -0.2416
     14 N          -2.7456    1.2847   -2.8987 N.am    1  UNL11      -0.1698
     15 N           1.1552    0.9193   -0.1407 N.am    1  UNL11      -0.2337
     16 N           2.2929    0.1813    0.1421 N.am    1  UNL11      -0.2304
     17 C           2.1964   -1.2223    0.2970 C.2     1  UNL11       0.2601
     18 O           3.2842   -1.8403    0.5711 O.2     1  UNL11      -0.2687
     19 C           0.9986   -1.9977    0.1746 C.ar    1  UNL11       0.0383
     20 C           0.8749   -3.1541    0.9204 C.ar    1  UNL11      -0.0469
     21 C          -0.2376   -3.9456    0.8567 C.ar    1  UNL11      -0.0257
     22 C          -1.2491   -3.5471    0.0094 C.ar    1  UNL11       0.1234
     23 F          -2.3631   -4.3300   -0.0588 F       1  UNL11      -0.2055
     24 C          -1.1535   -2.4069   -0.7428 C.ar    1  UNL11      -0.0257
     25 C          -0.0156   -1.6332   -0.6515 C.ar    1  UNL11      -0.0469
     26 H          -2.0560    0.9471   -0.5614 H       1  UNL11       0.0483
     27 H          -0.9233    2.3033   -0.5511 H       1  UNL11       0.0483
     28 H           0.8701    3.2255   -5.3428 H       1  UNL11       0.0661
     29 H           0.0986    3.6349   -7.6271 H       1  UNL11       0.0619
     30 H          -2.2276    3.0434   -8.2820 H       1  UNL11       0.0618
     31 H          -3.7091    2.0475   -6.6248 H       1  UNL11       0.0627
     32 H          -3.4470    0.8607   -2.2414 H       1  UNL11       0.3013
     33 H           1.0902    1.9280    0.1974 H       1  UNL11       0.1728
     34 H           3.2181    0.6300    0.2420 H       1  UNL11       0.1731
     35 H           1.6879   -3.4580    1.5892 H       1  UNL11       0.0626
     36 H          -0.2797   -4.8368    1.4660 H       1  UNL11       0.0646
     37 H          -1.9465   -2.0864   -1.4190 H       1  UNL11       0.0646
     38 H           0.0348   -0.7285   -1.2623 H       1  UNL11       0.0626
@<TRIPOS>BOND
     1     1     2    2
     2     2     3    1
     3     2    15   am
     4     3     4    1
     5     3    26    1
     6     3    27    1
     7     4     5    2
     8     5     6    1
     9     6     7   ar
    10     7     8   ar
    11     7    28    1
    12     8     9   ar
    13     8    29    1
    14     9    10   ar
    15     9    30    1
    16    10    11   ar
    17    10    31    1
    18    11    12    1
    19    11     6   ar
    20    12    13    2
    21    12    14   am
    22    14     4    1
    23    14    32    1
    24    15    16    1
    25    15    33    1
    26    16    17   am
    27    16    34    1
    28    17    18    2
    29    17    19    1
    30    19    20   ar
    31    20    21   ar
    32    20    35    1
    33    21    22   ar
    34    21    36    1
    35    22    23    1
    36    22    24   ar
    37    24    25   ar
    38    24    37    1
    39    25    19   ar
    40    25    38    1
@<TRIPOS>MOLECULE
*****
 38 40 0 0 0
SMALL
GASTEIGER

@<TRIPOS>ATOM
      1 O           0.0532   -0.7386   -1.2761 O.2     1  UNL11      -0.2737
      2 C           0.0043    0.4506   -0.8680 C.2     1  UNL11       0.2407
      3 C          -1.1531    1.3541   -1.1050 C.3     1  UNL11       0.1288
      4 C          -1.8113    1.8654    0.0958 C.2     1  UNL11       0.3035
      5 N          -2.3700    1.0842    1.0349 N.2     1  UNL11      -0.0449
      6 C          -3.0036    1.5642    2.1089 C.ar    1  UNL11       0.1904
      7 C          -3.6016    0.8199    3.0904 C.ar    1  UNL11      -0.0100
      8 C          -4.2502    1.3843    4.1656 C.ar    1  UNL11      -0.0576
      9 C          -4.3124    2.7379    4.2810 C.ar    1  UNL11      -0.0607
     10 C          -3.7219    3.5261    3.3115 C.ar    1  UNL11      -0.0432
     11 C          -3.0761    2.9483    2.2389 C.ar    1  UNL11       0.1121
     12 C          -2.4935    3.7520    1.2646 C.2     1  UNL11       0.3368
     13 O          -2.5470    5.0211    1.3646 O.2     1  UNL11      -0.2416
     14 N          -1.8822    3.2111    0.2285 N.am    1  UNL11      -0.1698
     15 N           1.1552    0.9193   -0.1407 N.am    1  UNL11      -0.2337
     16 N           2.2929    0.1813    0.1421 N.am    1  UNL11      -0.2304
     17 C           2.1964   -1.2223    0.2970 C.2     1  UNL11       0.2601
     18 O           3.2842   -1.8403    0.5711 O.2     1  UNL11      -0.2687
     19 C           0.9986   -1.9977    0.1746 C.ar    1  UNL11       0.0383
     20 C           0.8749   -3.1541    0.9204 C.ar    1  UNL11      -0.0469
     21 C          -0.2376   -3.9456    0.8567 C.ar    1  UNL11      -0.0257
     22 C          -1.2491   -3.5471    0.0094 C.ar    1  UNL11       0.1234
     23 F          -2.3631   -4.3300   -0.0588 F       1  UNL11      -0.2055
     24 C          -1.1535   -2.4069   -0.7428 C.ar    1  UNL11      -0.0257
     25 C          -0.0156   -1.6332   -0.6515 C.ar    1  UNL11      -0.0469
     26 H          -0.8209    2.2160   -1.7554 H       1  UNL11       0.0483
     27 H          -1.8586    0.7859   -1.7683 H       1  UNL11       0.0483
     28 H          -3.5741   -0.2730    3.0237 H       1  UNL11       0.0661
     29 H          -4.7069    0.7710    4.9230 H       1  UNL11       0.0619
     30 H          -4.8075    3.2503    5.1053 H       1  UNL11       0.0618
     31 H          -3.7573    4.6097    3.3784 H       1  UNL11       0.0627
     32 H          -1.4624    3.8656   -0.4778 H       1  UNL11       0.3013
     33 H           1.0902    1.9280    0.1974 H       1  UNL11       0.1728
     34 H           3.2181    0.6300    0.2420 H       1  UNL11       0.1731
     35 H           1.6879   -3.4580    1.5892 H       1  UNL11       0.0626
     36 H          -0.2797   -4.8368    1.4660 H       1  UNL11       0.0646
     37 H          -1.9465   -2.0864   -1.4190 H       1  UNL11       0.0646
     38 H           0.0348   -0.7285   -1.2623 H       1  UNL11       0.0626
@<TRIPOS>BOND
     1     1     2    2
     2     2     3    1
     3     2    15   am
     4     3     4    1
     5     3    26    1
     6     3    27    1
     7     4     5    2
     8     5     6    1
     9     6     7   ar
    10     7     8   ar
    11     7    28    1
    12     8     9   ar
    13     8    29    1
    14     9    10   ar
    15     9    30    1
    16    10    11   ar
    17    10    31    1
    18    11    12    1
    19    11     6   ar
    20    12    13    2
    21    12    14   am
    22    14     4    1
    23    14    32    1
    24    15    16    1
    25    15    33    1
    26    16    17   am
    27    16    34    1
    28    17    18    2
    29    17    19    1
    30    19    20   ar
    31    20    21   ar
    32    20    35    1
    33    21    22   ar
    34    21    36    1
    35    22    23    1
    36    22    24   ar
    37    24    25   ar
    38    24    37    1
    39    25    19   ar
    40    25    38    1
@<TRIPOS>MOLECULE
*****
 38 40 0 0 0
SMALL
GASTEIGER

@<TRIPOS>ATOM
      1 O           0.0532   -0.7386   -1.2761 O.2     1  UNL11      -0.2737
      2 C           0.0043    0.4506   -0.8680 C.2     1  UNL11       0.2407
      3 C          -1.1531    1.3541   -1.1050 C.3     1  UNL11       0.1288
      4 C          -2.1906    1.3345   -0.0755 C.2     1  UNL11       0.3035
      5 N          -2.5585    2.4109    0.6387 N.2     1  UNL11      -0.0449
      6 C          -3.4808    2.3723    1.6048 C.ar    1  UNL11       0.1904
      7 C          -3.8872    3.4305    2.3728 C.ar    1  UNL11      -0.0100
      8 C          -4.8366    3.3140    3.3630 C.ar    1  UNL11      -0.0576
      9 C          -5.4112    2.1060    3.6076 C.ar    1  UNL11      -0.0607
     10 C          -5.0289    1.0117    2.8551 C.ar    1  UNL11      -0.0432
     11 C          -4.0761    1.1415    1.8669 C.ar    1  UNL11       0.1121
     12 C          -3.6927    0.0310    1.1223 C.2     1  UNL11       0.3368
     13 O          -4.2258   -1.1048    1.3448 O.2     1  UNL11      -0.2416
     14 N          -2.7748    0.1403    0.1815 N.am    1  UNL11      -0.1698
     15 N           1.1552    0.9193   -0.1407 N.am    1  UNL11      -0.2337
     16 N           1.3099    2.1815    0.4086 N.am    1  UNL11      -0.2304
     17 C           0.6684    3.2905   -0.1933 C.2     1  UNL11       0.2601
     18 O          -0.0328    3.0446   -1.2365 O.2     1  UNL11      -0.2687
     19 C           0.7375    4.6464    0.2625 C.ar    1  UNL11       0.0383
     20 C           1.4879    4.9337    1.3863 C.ar    1  UNL11      -0.0469
     21 C           1.6009    6.2029    1.8809 C.ar    1  UNL11      -0.0257
     22 C           0.9302    7.2040    1.2118 C.ar    1  UNL11       0.1234
     23 F           1.0392    8.4733    1.6975 F       1  UNL11      -0.2055
     24 C           0.1779    6.9486    0.0966 C.ar    1  UNL11      -0.0257
     25 C           0.0879    5.6552   -0.3735 C.ar    1  UNL11      -0.0469
     26 H          -0.7745    2.4091   -1.2464 H       1  UNL11       0.0483
     27 H          -1.5537    1.0846   -2.1187 H       1  UNL11       0.0483
     28 H          -3.4395    4.4158    2.2045 H       1  UNL11       0.0661
     29 H          -5.1377    4.1667    3.9466 H       1  UNL11       0.0619
     30 H          -6.1687    1.9430    4.3735 H       1  UNL11       0.0618
     31 H          -5.4710    0.0350    3.0299 H       1  UNL11       0.0627
     32 H          -2.5222   -0.7313   -0.3477 H       1  UNL11       0.3013
     33 H           1.9399    0.2055   -0.0372 H       1  UNL11       0.1728
     34 H           1.8834    2.3375    1.2536 H       1  UNL11       0.1731
     35 H           2.0150    4.1269    1.9076 H       1  UNL11       0.0626
     36 H           2.2046    6.3681    2.7615 H       1  UNL11       0.0646
     37 H          -0.3596    7.7334   -0.4364 H       1  UNL11       0.0646
     38 H          -0.5186    5.4790   -1.2652 H       1  UNL11       0.0626
@<TRIPOS>BOND
     1     1     2    2
     2     2     3    1
     3     2    15   am
     4     3     4    1
     5     3    26    1
     6     3    27    1
     7     4     5    2
     8     5     6    1
     9     6     7   ar
    10     7     8   ar
    11     7    28    1
    12     8     9   ar
    13     8    29    1
    14     9    10   ar
    15     9    30    1
    16    10    11   ar
    17    10    31    1
    18    11    12    1
    19    11     6   ar
    20    12    13    2
    21    12    14   am
    22    14     4    1
    23    14    32    1
    24    15    16    1
    25    15    33    1
    26    16    17   am
    27    16    34    1
    28    17    18    2
    29    17    19    1
    30    19    20   ar
    31    20    21   ar
    32    20    35    1
    33    21    22   ar
    34    21    36    1
    35    22    23    1
    36    22    24   ar
    37    24    25   ar
    38    24    37    1
    39    25    19   ar
    40    25    38    1
@<TRIPOS>MOLECULE
*****
 38 40 0 0 0
SMALL
GASTEIGER

@<TRIPOS>ATOM
      1 O           0.0532   -0.7386   -1.2761 O.2     1  UNL11      -0.2737
      2 C           0.0043    0.4506   -0.8680 C.2     1  UNL11       0.2407
      3 C          -1.1531    1.3541   -1.1050 C.3     1  UNL11       0.1288
      4 C          -2.4269    0.9092   -0.5427 C.2     1  UNL11       0.3035
      5 N          -2.5838   -0.2320    0.1479 N.2     1  UNL11      -0.0449
      6 C          -3.7613   -0.6478    0.6234 C.ar    1  UNL11       0.1904
      7 C          -3.9847   -1.8043    1.3216 C.ar    1  UNL11      -0.0100
      8 C          -5.2316   -2.1767    1.7711 C.ar    1  UNL11      -0.0576
      9 C          -6.3038   -1.3775    1.5244 C.ar    1  UNL11      -0.0607
     10 C          -6.1219   -0.2011    0.8223 C.ar    1  UNL11      -0.0432
     11 C          -4.8679    0.1600    0.3767 C.ar    1  UNL11       0.1121
     12 C          -4.6987    1.3418   -0.3369 C.2     1  UNL11       0.3368
     13 O          -5.6978    2.0966   -0.5727 O.2     1  UNL11      -0.2416
     14 N          -3.5060    1.6928   -0.7775 N.am    1  UNL11      -0.1698
     15 N           1.1552    0.9193   -0.1407 N.am    1  UNL11      -0.2337
     16 N           2.2929    0.1813    0.1421 N.am    1  UNL11      -0.2304
     17 C           3.0270    0.4509    1.3219 C.2     1  UNL11       0.2601
     18 O           4.0755   -0.2592    1.5141 O.2     1  UNL11      -0.2687
     19 C           2.6986    1.4393    2.3048 C.ar    1  UNL11       0.0383
     20 C           3.0510    1.2121    3.6212 C.ar    1  UNL11      -0.0469
     21 C           2.7712    2.1084    4.6145 C.ar    1  UNL11      -0.0257
     22 C           2.1142    3.2655    4.2551 C.ar    1  UNL11       0.1234
     23 F           1.8329    4.1657    5.2396 F       1  UNL11      -0.2055
     24 C           1.7513    3.5167    2.9589 C.ar    1  UNL11      -0.0257
     25 C           2.0511    2.5889    1.9836 C.ar    1  UNL11      -0.0469
     26 H          -0.9023    2.3846   -0.7157 H       1  UNL11       0.0483
     27 H          -1.2069    1.5031   -2.2165 H       1  UNL11       0.0483
     28 H          -3.1428   -2.4725    1.5318 H       1  UNL11       0.0661
     29 H          -5.3732   -3.0907    2.3214 H       1  UNL11       0.0619
     30 H          -7.3167   -1.6100    1.8517 H       1  UNL11       0.0618
     31 H          -6.9610    0.4554    0.6106 H       1  UNL11       0.0627
     32 H          -3.4370    2.5941   -1.3127 H       1  UNL11       0.3013
     33 H           1.0902    1.9280    0.1974 H       1  UNL11       0.1728
     34 H           2.6225   -0.5681   -0.4881 H       1  UNL11       0.1731
     35 H           3.5726    0.2872    3.8913 H       1  UNL11       0.0626
     36 H           3.0744    1.8783    5.6257 H       1  UNL11       0.0646
     37 H           1.2274    4.4270    2.6662 H       1  UNL11       0.0646
     38 H           1.7506    2.8143    0.9575 H       1  UNL11       0.0626
@<TRIPOS>BOND
     1     1     2    2
     2     2     3    1
     3     2    15   am
     4     3     4    1
     5     3    26    1
     6     3    27    1
     7     4     5    2
     8     5     6    1
     9     6     7   ar
    10     7     8   ar
    11     7    28    1
    12     8     9   ar
    13     8    29    1
    14     9    10   ar
    15     9    30    1
    16    10    11   ar
    17    10    31    1
    18    11    12    1
    19    11     6   ar
    20    12    13    2
    21    12    14   am
    22    14     4    1
    23    14    32    1
    24    15    16    1
    25    15    33    1
    26    16    17   am
    27    16    34    1
    28    17    18    2
    29    17    19    1
    30    19    20   ar
    31    20    21   ar
    32    20    35    1
    33    21    22   ar
    34    21    36    1
    35    22    23    1
    36    22    24   ar
    37    24    25   ar
    38    24    37    1
    39    25    19   ar
    40    25    38    1
@<TRIPOS>MOLECULE
*****
 38 40 0 0 0
SMALL
GASTEIGER

@<TRIPOS>ATOM
      1 O           0.0532   -0.7386   -1.2761 O.2     1  UNL11      -0.2737
      2 C           0.0043    0.4506   -0.8680 C.2     1  UNL11       0.2407
      3 C          -1.1531    1.3541   -1.1050 C.3     1  UNL11       0.1288
      4 C          -1.4877    1.5971   -2.5070 C.2     1  UNL11       0.3035
      5 N          -0.6398    2.1381   -3.3973 N.2     1  UNL11      -0.0449
      6 C          -0.9699    2.3919   -4.6669 C.ar    1  UNL11       0.1904
      7 C          -0.1550    2.9517   -5.6143 C.ar    1  UNL11      -0.0100
      8 C          -0.5682    3.1973   -6.9044 C.ar    1  UNL11      -0.0576
      9 C          -1.8359    2.8781   -7.2789 C.ar    1  UNL11      -0.0607
     10 C          -2.6911    2.3115   -6.3529 C.ar    1  UNL11      -0.0432
     11 C          -2.2653    2.0715   -5.0635 C.ar    1  UNL11       0.1121
     12 C          -3.1380    1.5093   -4.1378 C.2     1  UNL11       0.3368
     13 O          -4.3276    1.2071   -4.4799 O.2     1  UNL11      -0.2416
     14 N          -2.7456    1.2847   -2.8987 N.am    1  UNL11      -0.1698
     15 N           1.1552    0.9193   -0.1407 N.am    1  UNL11      -0.2337
     16 N           2.2929    0.1813    0.1421 N.am    1  UNL11      -0.2304
     17 C           3.3443    0.7719    0.8832 C.2     1  UNL11       0.2601
     18 O           4.3719    0.0379    1.0965 O.2     1  UNL11      -0.2687
     19 C           3.3537    2.1050    1.4065 C.ar    1  UNL11       0.0383
     20 C           4.5619    2.7635    1.5297 C.ar    1  UNL11      -0.0469
     21 C           4.6504    4.0360    2.0206 C.ar    1  UNL11      -0.0257
     22 C           3.4758    4.6517    2.3962 C.ar    1  UNL11       0.1234
     23 F           3.5550    5.9218    2.8853 F       1  UNL11      -0.2055
     24 C           2.2643    4.0230    2.2869 C.ar    1  UNL11      -0.0257
     25 C           2.2144    2.7389    1.7864 C.ar    1  UNL11      -0.0469
     26 H          -2.0560    0.9471   -0.5614 H       1  UNL11       0.0483
     27 H          -0.9233    2.3033   -0.5511 H       1  UNL11       0.0483
     28 H           0.8701    3.2255   -5.3428 H       1  UNL11       0.0661
     29 H           0.0986    3.6349   -7.6271 H       1  UNL11       0.0619
     30 H          -2.2276    3.0434   -8.2820 H       1  UNL11       0.0618
     31 H          -3.7091    2.0475   -6.6248 H       1  UNL11       0.0627
     32 H          -3.4470    0.8607   -2.2414 H       1  UNL11       0.3013
     33 H           1.0902    1.9280    0.1974 H       1  UNL11       0.1728
     34 H           2.3958   -0.7970   -0.1735 H       1  UNL11       0.1731
     35 H           5.4872    2.2606    1.2273 H       1  UNL11       0.0626
     36 H           5.6226    4.5020    2.0908 H       1  UNL11       0.0646
     37 H           1.3307    4.5005    2.5857 H       1  UNL11       0.0646
     38 H           1.2350    2.2606    1.7094 H       1  UNL11       0.0626
@<TRIPOS>BOND
     1     1     2    2
     2     2     3    1
     3     2    15   am
     4     3     4    1
     5     3    26    1
     6     3    27    1
     7     4     5    2
     8     5     6    1
     9     6     7   ar
    10     7     8   ar
    11     7    28    1
    12     8     9   ar
    13     8    29    1
    14     9    10   ar
    15     9    30    1
    16    10    11   ar
    17    10    31    1
    18    11    12    1
    19    11     6   ar
    20    12    13    2
    21    12    14   am
    22    14     4    1
    23    14    32    1
    24    15    16    1
    25    15    33    1
    26    16    17   am
    27    16    34    1
    28    17    18    2
    29    17    19    1
    30    19    20   ar
    31    20    21   ar
    32    20    35    1
    33    21    22   ar
    34    21    36    1
    35    22    23    1
    36    22    24   ar
    37    24    25   ar
    38    24    37    1
    39    25    19   ar
    40    25    38    1
@<TRIPOS>MOLECULE
*****
 38 40 0 0 0
SMALL
GASTEIGER

@<TRIPOS>ATOM
      1 O           0.0532   -0.7386   -1.2761 O.2     1  UNL11      -0.2737
      2 C           0.0043    0.4506   -0.8680 C.2     1  UNL11       0.2407
      3 C          -1.1531    1.3541   -1.1050 C.3     1  UNL11       0.1288
      4 C          -2.2634    0.7737   -1.8580 C.2     1  UNL11       0.3035
      5 N          -3.3833    1.4427   -2.1779 N.2     1  UNL11      -0.0449
      6 C          -4.4085    0.8899   -2.8326 C.ar    1  UNL11       0.1904
      7 C          -5.5772    1.5160   -3.1746 C.ar    1  UNL11      -0.0100
      8 C          -6.5997    0.8780   -3.8400 C.ar    1  UNL11      -0.0576
      9 C          -6.4669   -0.4308   -4.1844 C.ar    1  UNL11      -0.0607
     10 C          -5.3030   -1.1004   -3.8575 C.ar    1  UNL11      -0.0432
     11 C          -4.2866   -0.4500   -3.1900 C.ar    1  UNL11       0.1121
     12 C          -3.1236   -1.1369   -2.8581 C.2     1  UNL11       0.3368
     13 O          -2.9906   -2.3634   -3.1769 O.2     1  UNL11      -0.2416
     14 N          -2.1487   -0.5287   -2.2105 N.am    1  UNL11      -0.1698
     15 N           1.1552    0.9193   -0.1407 N.am    1  UNL11      -0.2337
     16 N           1.3099    2.1815    0.4086 N.am    1  UNL11      -0.2304
     17 C           0.6684    3.2905   -0.1933 C.2     1  UNL11       0.2601
     18 O           0.8654    4.4296    0.3581 O.2     1  UNL11      -0.2687
     19 C          -0.1710    3.2443   -1.3527 C.ar    1  UNL11       0.0383
     20 C          -0.3963    2.0257   -1.9634 C.ar    1  UNL11      -0.0469
     21 C          -1.1850    1.9027   -3.0730 C.ar    1  UNL11      -0.0257
     22 C          -1.7574    3.0528   -3.5723 C.ar    1  UNL11       0.1234
     23 F          -2.5469    2.9386   -4.6779 F       1  UNL11      -0.2055
     24 C          -1.5504    4.2742   -2.9888 C.ar    1  UNL11      -0.0257
     25 C          -0.7488    4.3590   -1.8699 C.ar    1  UNL11      -0.0469
     26 H          -1.5264    1.7433   -0.1123 H       1  UNL11       0.0483
     27 H          -0.7343    2.2699   -1.6014 H       1  UNL11       0.0483
     28 H          -5.7176    2.5686   -2.9065 H       1  UNL11       0.0661
     29 H          -7.5048    1.4000   -4.0984 H       1  UNL11       0.0619
     30 H          -7.2345   -0.9959   -4.7122 H       1  UNL11       0.0618
     31 H          -5.1708   -2.1462   -4.1197 H       1  UNL11       0.0627
     32 H          -1.2945   -1.0964   -1.9835 H       1  UNL11       0.3013
     33 H           1.9399    0.2055   -0.0372 H       1  UNL11       0.1728
     34 H           1.8834    2.3375    1.2536 H       1  UNL11       0.1731
     35 H           0.0662    1.1203   -1.5549 H       1  UNL11       0.0626
     36 H          -1.3279    0.9231   -3.5057 H       1  UNL11       0.0646
     37 H          -1.9954    5.1898   -3.3795 H       1  UNL11       0.0646
     38 H          -0.6006    5.3455   -1.4239 H       1  UNL11       0.0626
@<TRIPOS>BOND
     1     1     2    2
     2     2     3    1
     3     2    15   am
     4     3     4    1
     5     3    26    1
     6     3    27    1
     7     4     5    2
     8     5     6    1
     9     6     7   ar
    10     7     8   ar
    11     7    28    1
    12     8     9   ar
    13     8    29    1
    14     9    10   ar
    15     9    30    1
    16    10    11   ar
    17    10    31    1
    18    11    12    1
    19    11     6   ar
    20    12    13    2
    21    12    14   am
    22    14     4    1
    23    14    32    1
    24    15    16    1
    25    15    33    1
    26    16    17   am
    27    16    34    1
    28    17    18    2
    29    17    19    1
    30    19    20   ar
    31    20    21   ar
    32    20    35    1
    33    21    22   ar
    34    21    36    1
    35    22    23    1
    36    22    24   ar
    37    24    25   ar
    38    24    37    1
    39    25    19   ar
    40    25    38    1
@<TRIPOS>MOLECULE
*****
 38 40 0 0 0
SMALL
GASTEIGER

@<TRIPOS>ATOM
      1 O           0.0532   -0.7386   -1.2761 O.2     1  UNL11      -0.2737
      2 C           0.0043    0.4506   -0.8680 C.2     1  UNL11       0.2407
      3 C          -1.1531    1.3541   -1.1050 C.3     1  UNL11       0.1288
      4 C          -1.3883    2.3628   -0.0736 C.2     1  UNL11       0.3035
      5 N          -1.0770    2.1966    1.2224 N.2     1  UNL11      -0.0449
      6 C          -1.3329    3.1105    2.1631 C.ar    1  UNL11       0.1904
      7 C          -1.0510    2.9927    3.4979 C.ar    1  UNL11      -0.0100
      8 C          -1.3560    3.9729    4.4152 C.ar    1  UNL11      -0.0576
      9 C          -1.9629    5.1177    4.0024 C.ar    1  UNL11      -0.0607
     10 C          -2.2653    5.2765    2.6632 C.ar    1  UNL11      -0.0432
     11 C          -1.9554    4.2867    1.7546 C.ar    1  UNL11       0.1121
     12 C          -2.2730    4.4540    0.4109 C.2     1  UNL11       0.3368
     13 O          -2.8418    5.5234    0.0151 O.2     1  UNL11      -0.2416
     14 N          -1.9912    3.5100   -0.4661 N.am    1  UNL11      -0.1698
     15 N           1.1552    0.9193   -0.1407 N.am    1  UNL11      -0.2337
     16 N           1.3099    2.1815    0.4086 N.am    1  UNL11      -0.2304
     17 C           0.6684    3.2905   -0.1933 C.2     1  UNL11       0.2601
     18 O          -0.0328    3.0446   -1.2365 O.2     1  UNL11      -0.2687
     19 C           0.7375    4.6464    0.2625 C.ar    1  UNL11       0.0383
     20 C           1.4879    4.9337    1.3863 C.ar    1  UNL11      -0.0469
     21 C           1.6009    6.2029    1.8809 C.ar    1  UNL11      -0.0257
     22 C           0.9302    7.2040    1.2118 C.ar    1  UNL11       0.1234
     23 F           1.0392    8.4733    1.6975 F       1  UNL11      -0.2055
     24 C           0.1779    6.9486    0.0966 C.ar    1  UNL11      -0.0257
     25 C           0.0879    5.6552   -0.3735 C.ar    1  UNL11      -0.0469
     26 H          -1.0295    1.8560   -2.1096 H       1  UNL11       0.0483
     27 H          -2.0419    0.6852   -1.2572 H       1  UNL11       0.0483
     28 H          -0.5675    2.0804    3.8633 H       1  UNL11       0.0661
     29 H          -1.1172    3.8515    5.4576 H       1  UNL11       0.0619
     30 H          -2.2307    5.9334    4.6730 H       1  UNL11       0.0618
     31 H          -2.7507    6.1804    2.3063 H       1  UNL11       0.0627
     32 H          -2.2557    3.6886   -1.4670 H       1  UNL11       0.3013
     33 H           1.9399    0.2055   -0.0372 H       1  UNL11       0.1728
     34 H           1.8834    2.3375    1.2536 H       1  UNL11       0.1731
     35 H           2.0150    4.1269    1.9076 H       1  UNL11       0.0626
     36 H           2.2046    6.3681    2.7615 H       1  UNL11       0.0646
     37 H          -0.3596    7.7334   -0.4364 H       1  UNL11       0.0646
     38 H          -0.5186    5.4790   -1.2652 H       1  UNL11       0.0626
@<TRIPOS>BOND
     1     1     2    2
     2     2     3    1
     3     2    15   am
     4     3     4    1
     5     3    26    1
     6     3    27    1
     7     4     5    2
     8     5     6    1
     9     6     7   ar
    10     7     8   ar
    11     7    28    1
    12     8     9   ar
    13     8    29    1
    14     9    10   ar
    15     9    30    1
    16    10    11   ar
    17    10    31    1
    18    11    12    1
    19    11     6   ar
    20    12    13    2
    21    12    14   am
    22    14     4    1
    23    14    32    1
    24    15    16    1
    25    15    33    1
    26    16    17   am
    27    16    34    1
    28    17    18    2
    29    17    19    1
    30    19    20   ar
    31    20    21   ar
    32    20    35    1
    33    21    22   ar
    34    21    36    1
    35    22    23    1
    36    22    24   ar
    37    24    25   ar
    38    24    37    1
    39    25    19   ar
    40    25    38    1
@<TRIPOS>MOLECULE
*****
 38 40 0 0 0
SMALL
GASTEIGER

@<TRIPOS>ATOM
      1 O           0.0532   -0.7386   -1.2761 O.2     1  UNL11      -0.2737
      2 C           0.0043    0.4506   -0.8680 C.2     1  UNL11       0.2407
      3 C          -1.1531    1.3541   -1.1050 C.3     1  UNL11       0.1288
      4 C          -1.0188    2.7066   -0.5671 C.2     1  UNL11       0.3035
      5 N          -1.8522    3.2380    0.3424 N.2     1  UNL11      -0.0449
      6 C          -1.7427    4.4895    0.7975 C.ar    1  UNL11       0.1904
      7 C          -2.5669    5.0886    1.7122 C.ar    1  UNL11      -0.0100
      8 C          -2.4014    6.3910    2.1267 C.ar    1  UNL11      -0.0576
      9 C          -1.3817    7.1352    1.6211 C.ar    1  UNL11      -0.0607
     10 C          -0.5268    6.5685    0.6949 C.ar    1  UNL11      -0.0432
     11 C          -0.7040    5.2632    0.2872 C.ar    1  UNL11       0.1121
     12 C           0.1572    4.7067   -0.6525 C.2     1  UNL11       0.3368
     13 O           1.1153    5.3967   -1.1316 O.2     1  UNL11      -0.2416
     14 N          -0.0084    3.4626   -1.0582 N.am    1  UNL11      -0.1698
     15 N           1.1552    0.9193   -0.1407 N.am    1  UNL11      -0.2337
     16 N           1.3099    2.1815    0.4086 N.am    1  UNL11      -0.2304
     17 C           2.6037    2.7461    0.5126 C.2     1  UNL11       0.2601
     18 O           3.5731    2.0303    0.0787 O.2     1  UNL11      -0.2687
     19 C           2.9137    4.0348    1.0552 C.ar    1  UNL11       0.0383
     20 C           1.8829    4.8236    1.5282 C.ar    1  UNL11      -0.0469
     21 C           2.1006    6.0640    2.0595 C.ar    1  UNL11      -0.0257
     22 C           3.4036    6.5108    2.1082 C.ar    1  UNL11       0.1234
     23 F           3.6297    7.7464    2.6383 F       1  UNL11      -0.2055
     24 C           4.4449    5.7516    1.6454 C.ar    1  UNL11      -0.0257
     25 C           4.1863    4.5045    1.1166 C.ar    1  UNL11      -0.0469
     26 H          -1.3619    1.4027   -2.2142 H       1  UNL11       0.0483
     27 H          -2.0517    0.8200   -0.6953 H       1  UNL11       0.0483
     28 H          -3.4011    4.5179    2.1341 H       1  UNL11       0.0661
     29 H          -3.0644    6.8316    2.8510 H       1  UNL11       0.0619
     30 H          -1.1920    8.1697    1.9056 H       1  UNL11       0.0618
     31 H           0.2953    7.1405    0.2742 H       1  UNL11       0.0627
     32 H           0.6698    3.0948   -1.7712 H       1  UNL11       0.3013
     33 H           1.9399    0.2055   -0.0372 H       1  UNL11       0.1728
     34 H           0.5005    2.7281    0.7456 H       1  UNL11       0.1731
     35 H           0.8522    4.4545    1.4822 H       1  UNL11       0.0626
     36 H           1.2555    6.6343    2.4170 H       1  UNL11       0.0646
     37 H           5.4781    6.0988    1.6758 H       1  UNL11       0.0646
     38 H           5.0353    3.9193    0.7548 H       1  UNL11       0.0626
@<TRIPOS>BOND
     1     1     2    2
     2     2     3    1
     3     2    15   am
     4     3     4    1
     5     3    26    1
     6     3    27    1
     7     4     5    2
     8     5     6    1
     9     6     7   ar
    10     7     8   ar
    11     7    28    1
    12     8     9   ar
    13     8    29    1
    14     9    10   ar
    15     9    30    1
    16    10    11   ar
    17    10    31    1
    18    11    12    1
    19    11     6   ar
    20    12    13    2
    21    12    14   am
    22    14     4    1
    23    14    32    1
    24    15    16    1
    25    15    33    1
    26    16    17   am
    27    16    34    1
    28    17    18    2
    29    17    19    1
    30    19    20   ar
    31    20    21   ar
    32    20    35    1
    33    21    22   ar
    34    21    36    1
    35    22    23    1
    36    22    24   ar
    37    24    25   ar
    38    24    37    1
    39    25    19   ar
    40    25    38    1
@<TRIPOS>MOLECULE
*****
 38 40 0 0 0
SMALL
GASTEIGER

@<TRIPOS>ATOM
      1 O           0.0532   -0.7386   -1.2761 O.2     1  UNL11      -0.2737
      2 C           0.0043    0.4506   -0.8680 C.2     1  UNL11       0.2407
      3 C          -1.1531    1.3541   -1.1050 C.3     1  UNL11       0.1288
      4 C          -2.1906    1.3345   -0.0755 C.2     1  UNL11       0.3035
      5 N          -3.2524    0.5122   -0.0966 N.2     1  UNL11      -0.0449
      6 C          -4.2151    0.5305    0.8298 C.ar    1  UNL11       0.1904
      7 C          -5.3241   -0.2722    0.8544 C.ar    1  UNL11      -0.0100
      8 C          -6.2853   -0.1887    1.8366 C.ar    1  UNL11      -0.0576
      9 C          -6.1496    0.7221    2.8372 C.ar    1  UNL11      -0.0607
     10 C          -5.0448    1.5523    2.8495 C.ar    1  UNL11      -0.0432
     11 C          -4.0897    1.4591    1.8593 C.ar    1  UNL11       0.1121
     12 C          -2.9867    2.3064    1.8770 C.2     1  UNL11       0.3368
     13 O          -2.8515    3.1628    2.8108 O.2     1  UNL11      -0.2416
     14 N          -2.0718    2.2341    0.9297 N.am    1  UNL11      -0.1698
     15 N           1.1552    0.9193   -0.1407 N.am    1  UNL11      -0.2337
     16 N           1.3099    2.1815    0.4086 N.am    1  UNL11      -0.2304
     17 C           2.6037    2.7461    0.5126 C.2     1  UNL11       0.2601
     18 O           2.6755    3.9098    1.0428 O.2     1  UNL11      -0.2687
     19 C           3.8227    2.1313    0.0801 C.ar    1  UNL11       0.0383
     20 C           3.7838    1.2527   -0.9853 C.ar    1  UNL11      -0.0469
     21 C           4.9052    0.6275   -1.4543 C.ar    1  UNL11      -0.0257
     22 C           6.0963    0.9057   -0.8190 C.ar    1  UNL11       0.1234
     23 F           7.2200    0.2876   -1.2817 F       1  UNL11      -0.2055
     24 C           6.1647    1.7707    0.2402 C.ar    1  UNL11      -0.0257
     25 C           5.0120    2.3833    0.6851 C.ar    1  UNL11      -0.0469
     26 H          -0.7745    2.4091   -1.2464 H       1  UNL11       0.0483
     27 H          -1.5537    1.0846   -2.1187 H       1  UNL11       0.0483
     28 H          -5.4658   -1.0123    0.0595 H       1  UNL11       0.0661
     29 H          -7.1439   -0.8376    1.8298 H       1  UNL11       0.0619
     30 H          -6.8701    0.8410    3.6458 H       1  UNL11       0.0618
     31 H          -4.9118    2.2892    3.6363 H       1  UNL11       0.0627
     32 H          -1.2615    2.8998    0.9917 H       1  UNL11       0.3013
     33 H           1.9399    0.2055   -0.0372 H       1  UNL11       0.1728
     34 H           0.5005    2.7281    0.7456 H       1  UNL11       0.1731
     35 H           2.8291    1.0414   -1.4798 H       1  UNL11       0.0626
     36 H           4.8143   -0.0471   -2.2933 H       1  UNL11       0.0646
     37 H           7.1016    1.9932    0.7517 H       1  UNL11       0.0646
     38 H           5.0946    3.0693    1.5317 H       1  UNL11       0.0626
@<TRIPOS>BOND
     1     1     2    2
     2     2     3    1
     3     2    15   am
     4     3     4    1
     5     3    26    1
     6     3    27    1
     7     4     5    2
     8     5     6    1
     9     6     7   ar
    10     7     8   ar
    11     7    28    1
    12     8     9   ar
    13     8    29    1
    14     9    10   ar
    15     9    30    1
    16    10    11   ar
    17    10    31    1
    18    11    12    1
    19    11     6   ar
    20    12    13    2
    21    12    14   am
    22    14     4    1
    23    14    32    1
    24    15    16    1
    25    15    33    1
    26    16    17   am
    27    16    34    1
    28    17    18    2
    29    17    19    1
    30    19    20   ar
    31    20    21   ar
    32    20    35    1
    33    21    22   ar
    34    21    36    1
    35    22    23    1
    36    22    24   ar
    37    24    25   ar
    38    24    37    1
    39    25    19   ar
    40    25    38    1
@<TRIPOS>MOLECULE
*****
 38 40 0 0 0
SMALL
GASTEIGER

@<TRIPOS>ATOM
      1 O           0.0532   -0.7386   -1.2761 O.2     1  UNL11      -0.2737
      2 C           0.0043    0.4506   -0.8680 C.2     1  UNL11       0.2407
      3 C          -1.1531    1.3541   -1.1050 C.3     1  UNL11       0.1288
      4 C          -1.4877    1.5971   -2.5070 C.2     1  UNL11       0.3035
      5 N          -2.3517    0.8487   -3.2123 N.2     1  UNL11      -0.0449
      6 C          -2.6199    1.0565   -4.5047 C.ar    1  UNL11       0.1904
      7 C          -3.4790    0.3215   -5.2770 C.ar    1  UNL11      -0.0100
      8 C          -3.6971    0.5858   -6.6104 C.ar    1  UNL11      -0.0576
      9 C          -3.0437    1.6170   -7.2093 C.ar    1  UNL11      -0.0607
     10 C          -2.1670    2.3839   -6.4654 C.ar    1  UNL11      -0.0432
     11 C          -1.9566    2.1082   -5.1308 C.ar    1  UNL11       0.1121
     12 C          -1.0649    2.8812   -4.3946 C.2     1  UNL11       0.3368
     13 O          -0.4482    3.8494   -4.9476 O.2     1  UNL11      -0.2416
     14 N          -0.8473    2.6207   -3.1201 N.am    1  UNL11      -0.1698
     15 N           1.1552    0.9193   -0.1407 N.am    1  UNL11      -0.2337
     16 N           2.2929    0.1813    0.1421 N.am    1  UNL11      -0.2304
     17 C           3.5419    0.8371    0.2582 C.2     1  UNL11       0.2601
     18 O           3.5356    2.1066    0.0889 O.2     1  UNL11      -0.2687
     19 C           4.7950    0.2064    0.5462 C.ar    1  UNL11       0.0383
     20 C           4.8243   -1.1621    0.7330 C.ar    1  UNL11      -0.0469
     21 C           5.9817   -1.8340    1.0111 C.ar    1  UNL11      -0.0257
     22 C           7.1383   -1.0898    1.1017 C.ar    1  UNL11       0.1234
     23 F           8.2975   -1.7525    1.3771 F       1  UNL11      -0.2055
     24 C           7.1392    0.2677    0.9229 C.ar    1  UNL11      -0.0257
     25 C           5.9518    0.9110    0.6430 C.ar    1  UNL11      -0.0469
     26 H          -2.0560    0.9471   -0.5614 H       1  UNL11       0.0483
     27 H          -0.9233    2.3033   -0.5511 H       1  UNL11       0.0483
     28 H          -4.0164   -0.5195   -4.8260 H       1  UNL11       0.0661
     29 H          -4.3827   -0.0086   -7.1893 H       1  UNL11       0.0619
     30 H          -3.1699    1.8826   -8.2584 H       1  UNL11       0.0618
     31 H          -1.6312    3.2131   -6.9186 H       1  UNL11       0.0627
     32 H          -0.1619    3.2351   -2.6137 H       1  UNL11       0.3013
     33 H           1.0902    1.9280    0.1974 H       1  UNL11       0.1728
     34 H           2.2550   -0.8426    0.2738 H       1  UNL11       0.1731
     35 H           3.8963   -1.7399    0.6583 H       1  UNL11       0.0626
     36 H           5.9441   -2.9055    1.1439 H       1  UNL11       0.0646
     37 H           8.0484    0.8650    0.9972 H       1  UNL11       0.0646
     38 H           5.9806    1.9946    0.5046 H       1  UNL11       0.0626
@<TRIPOS>BOND
     1     1     2    2
     2     2     3    1
     3     2    15   am
     4     3     4    1
     5     3    26    1
     6     3    27    1
     7     4     5    2
     8     5     6    1
     9     6     7   ar
    10     7     8   ar
    11     7    28    1
    12     8     9   ar
    13     8    29    1
    14     9    10   ar
    15     9    30    1
    16    10    11   ar
    17    10    31    1
    18    11    12    1
    19    11     6   ar
    20    12    13    2
    21    12    14   am
    22    14     4    1
    23    14    32    1
    24    15    16    1
    25    15    33    1
    26    16    17   am
    27    16    34    1
    28    17    18    2
    29    17    19    1
    30    19    20   ar
    31    20    21   ar
    32    20    35    1
    33    21    22   ar
    34    21    36    1
    35    22    23    1
    36    22    24   ar
    37    24    25   ar
    38    24    37    1
    39    25    19   ar
    40    25    38    1
@<TRIPOS>MOLECULE
*****
 38 40 0 0 0
SMALL
GASTEIGER

@<TRIPOS>ATOM
      1 O           0.0532   -0.7386   -1.2761 O.2     1  UNL11      -0.2737
      2 C           0.0043    0.4506   -0.8680 C.2     1  UNL11       0.2407
      3 C          -1.1531    1.3541   -1.1050 C.3     1  UNL11       0.1288
      4 C          -1.3883    2.3628   -0.0736 C.2     1  UNL11       0.3035
      5 N          -2.3927    3.2537   -0.1113 N.2     1  UNL11      -0.0449
      6 C          -2.5745    4.1968    0.8176 C.ar    1  UNL11       0.1904
      7 C          -3.5695    5.1374    0.8262 C.ar    1  UNL11      -0.0100
      8 C          -3.6881    6.0906    1.8125 C.ar    1  UNL11      -0.0576
      9 C          -2.7909    6.1193    2.8340 C.ar    1  UNL11      -0.0607
     10 C          -1.7706    5.1876    2.8630 C.ar    1  UNL11      -0.0432
     11 C          -1.6623    4.2387    1.8684 C.ar    1  UNL11       0.1121
     12 C          -0.6257    3.3119    1.9034 C.2     1  UNL11       0.3368
     13 O           0.2195    3.3315    2.8567 O.2     1  UNL11      -0.2416
     14 N          -0.5054    2.4060    0.9522 N.am    1  UNL11      -0.1698
     15 N           1.1552    0.9193   -0.1407 N.am    1  UNL11      -0.2337
     16 N           2.2929    0.1813    0.1421 N.am    1  UNL11      -0.2304
     17 C           3.5419    0.8371    0.2582 C.2     1  UNL11       0.2601
     18 O           3.5356    2.1066    0.0889 O.2     1  UNL11      -0.2687
     19 C           4.7950    0.2064    0.5462 C.ar    1  UNL11       0.0383
     20 C           4.8014   -0.9434    1.3120 C.ar    1  UNL11      -0.0469
     21 C           5.9573   -1.6007    1.6283 C.ar    1  UNL11      -0.0257
     22 C           7.1367   -1.0703    1.1515 C.ar    1  UNL11       0.1234
     23 F           8.2942   -1.7208    1.4610 F       1  UNL11      -0.2055
     24 C           7.1610    0.0686    0.3917 C.ar    1  UNL11      -0.0257
     25 C           5.9742    0.7041    0.0924 C.ar    1  UNL11      -0.0469
     26 H          -1.0295    1.8560   -2.1096 H       1  UNL11       0.0483
     27 H          -2.0419    0.6852   -1.2572 H       1  UNL11       0.0483
     28 H          -4.3047    5.1448    0.0144 H       1  UNL11       0.0661
     29 H          -4.4848    6.8139    1.7926 H       1  UNL11       0.0619
     30 H          -2.8263    6.8438    3.6470 H       1  UNL11       0.0618
     31 H          -1.0398    5.1882    3.6667 H       1  UNL11       0.0627
     32 H           0.2976    1.7329    1.0278 H       1  UNL11       0.3013
     33 H           1.0902    1.9280    0.1974 H       1  UNL11       0.1728
     34 H           2.2550   -0.8426    0.2738 H       1  UNL11       0.1731
     35 H           3.8555   -1.3526    1.6842 H       1  UNL11       0.0626
     36 H           5.9003   -2.4976    2.2280 H       1  UNL11       0.0646
     37 H           8.0895    0.4978    0.0141 H       1  UNL11       0.0646
     38 H           6.0219    1.6106   -0.5158 H       1  UNL11       0.0626
@<TRIPOS>BOND
     1     1     2    2
     2     2     3    1
     3     2    15   am
     4     3     4    1
     5     3    26    1
     6     3    27    1
     7     4     5    2
     8     5     6    1
     9     6     7   ar
    10     7     8   ar
    11     7    28    1
    12     8     9   ar
    13     8    29    1
    14     9    10   ar
    15     9    30    1
    16    10    11   ar
    17    10    31    1
    18    11    12    1
    19    11     6   ar
    20    12    13    2
    21    12    14   am
    22    14     4    1
    23    14    32    1
    24    15    16    1
    25    15    33    1
    26    16    17   am
    27    16    34    1
    28    17    18    2
    29    17    19    1
    30    19    20   ar
    31    20    21   ar
    32    20    35    1
    33    21    22   ar
    34    21    36    1
    35    22    23    1
    36    22    24   ar
    37    24    25   ar
    38    24    37    1
    39    25    19   ar
    40    25    38    1
@<TRIPOS>MOLECULE
*****
 38 40 0 0 0
SMALL
GASTEIGER

@<TRIPOS>ATOM
      1 O           0.0532   -0.7386   -1.2761 O.2     1  UNL11      -0.2737
      2 C           0.0043    0.4506   -0.8680 C.2     1  UNL11       0.2407
      3 C          -1.1531    1.3541   -1.1050 C.3     1  UNL11       0.1288
      4 C          -2.1906    1.3345   -0.0755 C.2     1  UNL11       0.3035
      5 N          -2.2003    2.1462    0.9947 N.2     1  UNL11      -0.0449
      6 C          -3.1330    2.0923    1.9500 C.ar    1  UNL11       0.1904
      7 C          -3.1882    2.8826    3.0668 C.ar    1  UNL11      -0.0100
      8 C          -4.1749    2.7621    4.0193 C.ar    1  UNL11      -0.0576
      9 C          -5.1489    1.8255    3.8666 C.ar    1  UNL11      -0.0607
     10 C          -5.1298    1.0068    2.7534 C.ar    1  UNL11      -0.0432
     11 C          -4.1354    1.1370    1.8071 C.ar    1  UNL11       0.1121
     12 C          -4.1214    0.3010    0.6955 C.2     1  UNL11       0.3368
     13 O          -5.0300   -0.5794    0.5443 O.2     1  UNL11      -0.2416
     14 N          -3.1695    0.4089   -0.2112 N.am    1  UNL11      -0.1698
     15 N           1.1552    0.9193   -0.1407 N.am    1  UNL11      -0.2337
     16 N           2.2929    0.1813    0.1421 N.am    1  UNL11      -0.2304
     17 C           3.0270    0.4509    1.3219 C.2     1  UNL11       0.2601
     18 O           4.0755   -0.2592    1.5141 O.2     1  UNL11      -0.2687
     19 C           2.6986    1.4393    2.3048 C.ar    1  UNL11       0.0383
     20 C           3.5278    1.5911    3.3994 C.ar    1  UNL11      -0.0469
     21 C           3.2796    2.5123    4.3781 C.ar    1  UNL11      -0.0257
     22 C           2.1560    3.2979    4.2364 C.ar    1  UNL11       0.1234
     23 F           1.9020    4.2206    5.2075 F       1  UNL11      -0.2055
     24 C           1.3153    3.1686    3.1633 C.ar    1  UNL11      -0.0257
     25 C           1.5988    2.2282    2.1952 C.ar    1  UNL11      -0.0469
     26 H          -0.7745    2.4091   -1.2464 H       1  UNL11       0.0483
     27 H          -1.5537    1.0846   -2.1187 H       1  UNL11       0.0483
     28 H          -2.4152    3.6428    3.2221 H       1  UNL11       0.0661
     29 H          -4.1925    3.4021    4.8845 H       1  UNL11       0.0619
     30 H          -5.9592    1.6770    4.5796 H       1  UNL11       0.0618
     31 H          -5.8950    0.2498    2.6068 H       1  UNL11       0.0627
     32 H          -3.2070   -0.2499   -1.0286 H       1  UNL11       0.3013
     33 H           1.0902    1.9280    0.1974 H       1  UNL11       0.1728
     34 H           2.6225   -0.5681   -0.4881 H       1  UNL11       0.1731
     35 H           4.4171    0.9588    3.4982 H       1  UNL11       0.0626
     36 H           3.9655    2.5883    5.2094 H       1  UNL11       0.0646
     37 H           0.4220    3.7824    3.0452 H       1  UNL11       0.0646
     38 H           0.9119    2.1460    1.3493 H       1  UNL11       0.0626
@<TRIPOS>BOND
     1     1     2    2
     2     2     3    1
     3     2    15   am
     4     3     4    1
     5     3    26    1
     6     3    27    1
     7     4     5    2
     8     5     6    1
     9     6     7   ar
    10     7     8   ar
    11     7    28    1
    12     8     9   ar
    13     8    29    1
    14     9    10   ar
    15     9    30    1
    16    10    11   ar
    17    10    31    1
    18    11    12    1
    19    11     6   ar
    20    12    13    2
    21    12    14   am
    22    14     4    1
    23    14    32    1
    24    15    16    1
    25    15    33    1
    26    16    17   am
    27    16    34    1
    28    17    18    2
    29    17    19    1
    30    19    20   ar
    31    20    21   ar
    32    20    35    1
    33    21    22   ar
    34    21    36    1
    35    22    23    1
    36    22    24   ar
    37    24    25   ar
    38    24    37    1
    39    25    19   ar
    40    25    38    1
@<TRIPOS>MOLECULE
*****
 38 40 0 0 0
SMALL
GASTEIGER

@<TRIPOS>ATOM
      1 O           0.0532   -0.7386   -1.2761 O.2     1  UNL11      -0.2737
      2 C           0.0043    0.4506   -0.8680 C.2     1  UNL11       0.2407
      3 C          -1.1531    1.3541   -1.1050 C.3     1  UNL11       0.1288
      4 C          -0.8325    2.7762   -1.2117 C.2     1  UNL11       0.3035
      5 N          -0.8114    3.6205   -0.1672 N.2     1  UNL11      -0.0449
      6 C          -0.5555    4.9268   -0.2827 C.ar    1  UNL11       0.1904
      7 C          -0.5323    5.8363    0.7406 C.ar    1  UNL11      -0.0100
      8 C          -0.2732    7.1743    0.5454 C.ar    1  UNL11      -0.0576
      9 C          -0.0253    7.6371   -0.7090 C.ar    1  UNL11      -0.0607
     10 C          -0.0395    6.7522   -1.7705 C.ar    1  UNL11      -0.0432
     11 C          -0.3015    5.4146   -1.5616 C.ar    1  UNL11       0.1121
     12 C          -0.3222    4.5350   -2.6389 C.2     1  UNL11       0.3368
     13 O          -0.0912    4.9600   -3.8177 O.2     1  UNL11      -0.2416
     14 N          -0.5820    3.2552   -2.4532 N.am    1  UNL11      -0.1698
     15 N           1.1552    0.9193   -0.1407 N.am    1  UNL11      -0.2337
     16 N           2.2929    0.1813    0.1421 N.am    1  UNL11      -0.2304
     17 C           3.5419    0.8371    0.2582 C.2     1  UNL11       0.2601
     18 O           4.5541    0.0928    0.5070 O.2     1  UNL11      -0.2687
     19 C           3.7640    2.2453    0.1217 C.ar    1  UNL11       0.0383
     20 C           4.9808    2.6834   -0.3644 C.ar    1  UNL11      -0.0469
     21 C           5.2660    4.0108   -0.5221 C.ar    1  UNL11      -0.0257
     22 C           4.2847    4.9138   -0.1740 C.ar    1  UNL11       0.1234
     23 F           4.5606    6.2399   -0.3300 F       1  UNL11      -0.2055
     24 C           3.0703    4.5087    0.3118 C.ar    1  UNL11      -0.0257
     25 C           2.8185    3.1606    0.4566 C.ar    1  UNL11      -0.0469
     26 H          -1.7016    1.0151   -2.0326 H       1  UNL11       0.0483
     27 H          -1.8846    1.1430   -0.2798 H       1  UNL11       0.0483
     28 H          -0.7336    5.4964    1.7621 H       1  UNL11       0.0661
     29 H          -0.2580    7.8633    1.3721 H       1  UNL11       0.0619
     30 H           0.1883    8.6814   -0.9348 H       1  UNL11       0.0618
     31 H           0.1542    7.0950   -2.7828 H       1  UNL11       0.0627
     32 H          -0.5871    2.6373   -3.3027 H       1  UNL11       0.3013
     33 H           1.0902    1.9280    0.1974 H       1  UNL11       0.1728
     34 H           2.2550   -0.8426    0.2738 H       1  UNL11       0.1731
     35 H           5.7511    1.9532   -0.6364 H       1  UNL11       0.0626
     36 H           6.2337    4.2941   -0.9102 H       1  UNL11       0.0646
     37 H           2.2899    5.2160    0.5939 H       1  UNL11       0.0646
     38 H           1.8414    2.8645    0.8460 H       1  UNL11       0.0626
@<TRIPOS>BOND
     1     1     2    2
     2     2     3    1
     3     2    15   am
     4     3     4    1
     5     3    26    1
     6     3    27    1
     7     4     5    2
     8     5     6    1
     9     6     7   ar
    10     7     8   ar
    11     7    28    1
    12     8     9   ar
    13     8    29    1
    14     9    10   ar
    15     9    30    1
    16    10    11   ar
    17    10    31    1
    18    11    12    1
    19    11     6   ar
    20    12    13    2
    21    12    14   am
    22    14     4    1
    23    14    32    1
    24    15    16    1
    25    15    33    1
    26    16    17   am
    27    16    34    1
    28    17    18    2
    29    17    19    1
    30    19    20   ar
    31    20    21   ar
    32    20    35    1
    33    21    22   ar
    34    21    36    1
    35    22    23    1
    36    22    24   ar
    37    24    25   ar
    38    24    37    1
    39    25    19   ar
    40    25    38    1
@<TRIPOS>MOLECULE
*****
 38 40 0 0 0
SMALL
GASTEIGER

@<TRIPOS>ATOM
      1 O           0.0532   -0.7386   -1.2761 O.2     1  UNL11      -0.2737
      2 C           0.0043    0.4506   -0.8680 C.2     1  UNL11       0.2407
      3 C          -1.1531    1.3541   -1.1050 C.3     1  UNL11       0.1288
      4 C          -2.1906    1.3345   -0.0755 C.2     1  UNL11       0.3035
      5 N          -2.2003    2.1462    0.9947 N.2     1  UNL11      -0.0449
      6 C          -3.1330    2.0923    1.9500 C.ar    1  UNL11       0.1904
      7 C          -3.1882    2.8826    3.0668 C.ar    1  UNL11      -0.0100
      8 C          -4.1749    2.7621    4.0193 C.ar    1  UNL11      -0.0576
      9 C          -5.1489    1.8255    3.8666 C.ar    1  UNL11      -0.0607
     10 C          -5.1298    1.0068    2.7534 C.ar    1  UNL11      -0.0432
     11 C          -4.1354    1.1370    1.8071 C.ar    1  UNL11       0.1121
     12 C          -4.1214    0.3010    0.6955 C.2     1  UNL11       0.3368
     13 O          -5.0300   -0.5794    0.5443 O.2     1  UNL11      -0.2416
     14 N          -3.1695    0.4089   -0.2112 N.am    1  UNL11      -0.1698
     15 N           1.1552    0.9193   -0.1407 N.am    1  UNL11      -0.2337
     16 N           1.3099    2.1815    0.4086 N.am    1  UNL11      -0.2304
     17 C           2.6037    2.7461    0.5126 C.2     1  UNL11       0.2601
     18 O           2.6755    3.9098    1.0428 O.2     1  UNL11      -0.2687
     19 C           3.8227    2.1313    0.0801 C.ar    1  UNL11       0.0383
     20 C           3.7838    1.2527   -0.9853 C.ar    1  UNL11      -0.0469
     21 C           4.9052    0.6275   -1.4543 C.ar    1  UNL11      -0.0257
     22 C           6.0963    0.9057   -0.8190 C.ar    1  UNL11       0.1234
     23 F           7.2200    0.2876   -1.2817 F       1  UNL11      -0.2055
     24 C           6.1647    1.7707    0.2402 C.ar    1  UNL11      -0.0257
     25 C           5.0120    2.3833    0.6851 C.ar    1  UNL11      -0.0469
     26 H          -0.7745    2.4091   -1.2464 H       1  UNL11       0.0483
     27 H          -1.5537    1.0846   -2.1187 H       1  UNL11       0.0483
     28 H          -2.4152    3.6428    3.2221 H       1  UNL11       0.0661
     29 H          -4.1925    3.4021    4.8845 H       1  UNL11       0.0619
     30 H          -5.9592    1.6770    4.5796 H       1  UNL11       0.0618
     31 H          -5.8950    0.2498    2.6068 H       1  UNL11       0.0627
     32 H          -3.2070   -0.2499   -1.0286 H       1  UNL11       0.3013
     33 H           1.9399    0.2055   -0.0372 H       1  UNL11       0.1728
     34 H           0.5005    2.7281    0.7456 H       1  UNL11       0.1731
     35 H           2.8291    1.0414   -1.4798 H       1  UNL11       0.0626
     36 H           4.8143   -0.0471   -2.2933 H       1  UNL11       0.0646
     37 H           7.1016    1.9932    0.7517 H       1  UNL11       0.0646
     38 H           5.0946    3.0693    1.5317 H       1  UNL11       0.0626
@<TRIPOS>BOND
     1     1     2    2
     2     2     3    1
     3     2    15   am
     4     3     4    1
     5     3    26    1
     6     3    27    1
     7     4     5    2
     8     5     6    1
     9     6     7   ar
    10     7     8   ar
    11     7    28    1
    12     8     9   ar
    13     8    29    1
    14     9    10   ar
    15     9    30    1
    16    10    11   ar
    17    10    31    1
    18    11    12    1
    19    11     6   ar
    20    12    13    2
    21    12    14   am
    22    14     4    1
    23    14    32    1
    24    15    16    1
    25    15    33    1
    26    16    17   am
    27    16    34    1
    28    17    18    2
    29    17    19    1
    30    19    20   ar
    31    20    21   ar
    32    20    35    1
    33    21    22   ar
    34    21    36    1
    35    22    23    1
    36    22    24   ar
    37    24    25   ar
    38    24    37    1
    39    25    19   ar
    40    25    38    1
@<TRIPOS>MOLECULE
*****
 38 40 0 0 0
SMALL
GASTEIGER

@<TRIPOS>ATOM
      1 O           0.0532   -0.7386   -1.2761 O.2     1  UNL11      -0.2737
      2 C           0.0043    0.4506   -0.8680 C.2     1  UNL11       0.2407
      3 C          -1.1531    1.3541   -1.1050 C.3     1  UNL11       0.1288
      4 C          -1.4877    1.5971   -2.5070 C.2     1  UNL11       0.3035
      5 N          -0.9772    2.6031   -3.2361 N.2     1  UNL11      -0.0449
      6 C          -1.3206    2.8390   -4.5057 C.ar    1  UNL11       0.1904
      7 C          -0.8450    3.8530   -5.2934 C.ar    1  UNL11      -0.0100
      8 C          -1.2548    4.0441   -6.5937 C.ar    1  UNL11      -0.0576
      9 C          -2.1702    3.2017   -7.1430 C.ar    1  UNL11      -0.0607
     10 C          -2.6761    2.1650   -6.3818 C.ar    1  UNL11      -0.0432
     11 C          -2.2581    1.9851   -5.0802 C.ar    1  UNL11       0.1121
     12 C          -2.7813    0.9438   -4.3209 C.2     1  UNL11       0.3368
     13 O          -3.6395    0.1497   -4.8274 O.2     1  UNL11      -0.2416
     14 N          -2.3971    0.7678   -3.0714 N.am    1  UNL11      -0.1698
     15 N           1.1552    0.9193   -0.1407 N.am    1  UNL11      -0.2337
     16 N           1.3099    2.1815    0.4086 N.am    1  UNL11      -0.2304
     17 C           2.6037    2.7461    0.5126 C.2     1  UNL11       0.2601
     18 O           3.5731    2.0303    0.0787 O.2     1  UNL11      -0.2687
     19 C           2.9137    4.0348    1.0552 C.ar    1  UNL11       0.0383
     20 C           2.0994    4.5549    2.0426 C.ar    1  UNL11      -0.0469
     21 C           2.3314    5.7776    2.6079 C.ar    1  UNL11      -0.0257
     22 C           3.4216    6.4876    2.1530 C.ar    1  UNL11       0.1234
     23 F           3.6611    7.7074    2.7129 F       1  UNL11      -0.2055
     24 C           4.2449    5.9980    1.1746 C.ar    1  UNL11      -0.0257
     25 C           3.9795    4.7599    0.6282 C.ar    1  UNL11      -0.0469
     26 H          -2.0560    0.9471   -0.5614 H       1  UNL11       0.0483
     27 H          -0.9233    2.3033   -0.5511 H       1  UNL11       0.0483
     28 H          -0.1109    4.5521   -4.8788 H       1  UNL11       0.0661
     29 H          -0.8583    4.8488   -7.1883 H       1  UNL11       0.0619
     30 H          -2.5370    3.2937   -8.1648 H       1  UNL11       0.0618
     31 H          -3.4090    1.4780   -6.7952 H       1  UNL11       0.0627
     32 H          -2.8268   -0.0329   -2.5443 H       1  UNL11       0.3013
     33 H           1.9399    0.2055   -0.0372 H       1  UNL11       0.1728
     34 H           0.5005    2.7281    0.7456 H       1  UNL11       0.1731
     35 H           1.2361    3.9785    2.3934 H       1  UNL11       0.0626
     36 H           1.6623    6.1315    3.3789 H       1  UNL11       0.0646
     37 H           5.1068    6.5545    0.8055 H       1  UNL11       0.0646
     38 H           4.6524    4.3926   -0.1506 H       1  UNL11       0.0626
@<TRIPOS>BOND
     1     1     2    2
     2     2     3    1
     3     2    15   am
     4     3     4    1
     5     3    26    1
     6     3    27    1
     7     4     5    2
     8     5     6    1
     9     6     7   ar
    10     7     8   ar
    11     7    28    1
    12     8     9   ar
    13     8    29    1
    14     9    10   ar
    15     9    30    1
    16    10    11   ar
    17    10    31    1
    18    11    12    1
    19    11     6   ar
    20    12    13    2
    21    12    14   am
    22    14     4    1
    23    14    32    1
    24    15    16    1
    25    15    33    1
    26    16    17   am
    27    16    34    1
    28    17    18    2
    29    17    19    1
    30    19    20   ar
    31    20    21   ar
    32    20    35    1
    33    21    22   ar
    34    21    36    1
    35    22    23    1
    36    22    24   ar
    37    24    25   ar
    38    24    37    1
    39    25    19   ar
    40    25    38    1
@<TRIPOS>MOLECULE
*****
 38 40 0 0 0
SMALL
GASTEIGER

@<TRIPOS>ATOM
      1 O           0.0532   -0.7386   -1.2761 O.2     1  UNL11      -0.2737
      2 C           0.0043    0.4506   -0.8680 C.2     1  UNL11       0.2407
      3 C          -1.1531    1.3541   -1.1050 C.3     1  UNL11       0.1288
      4 C          -2.1906    1.3345   -0.0755 C.2     1  UNL11       0.3035
      5 N          -3.4914    1.5656   -0.3174 N.2     1  UNL11      -0.0449
      6 C          -4.4251    1.5840    0.6382 C.ar    1  UNL11       0.1904
      7 C          -5.7604    1.8252    0.4546 C.ar    1  UNL11      -0.0100
      8 C          -6.6661    1.8416    1.4913 C.ar    1  UNL11      -0.0576
      9 C          -6.2409    1.6099    2.7621 C.ar    1  UNL11      -0.0607
     10 C          -4.9006    1.3625    2.9911 C.ar    1  UNL11      -0.0432
     11 C          -4.0035    1.3498    1.9440 C.ar    1  UNL11       0.1121
     12 C          -2.6555    1.1088    2.1880 C.2     1  UNL11       0.3368
     13 O          -2.2482    0.8908    3.3755 O.2     1  UNL11      -0.2416
     14 N          -1.7861    1.1046    1.1962 N.am    1  UNL11      -0.1698
     15 N           1.1552    0.9193   -0.1407 N.am    1  UNL11      -0.2337
     16 N           2.2929    0.1813    0.1421 N.am    1  UNL11      -0.2304
     17 C           3.0270    0.4509    1.3219 C.2     1  UNL11       0.2601
     18 O           4.0755   -0.2592    1.5141 O.2     1  UNL11      -0.2687
     19 C           2.6986    1.4393    2.3048 C.ar    1  UNL11       0.0383
     20 C           1.3715    1.7713    2.4977 C.ar    1  UNL11      -0.0469
     21 C           0.9811    2.7049    3.4166 C.ar    1  UNL11      -0.0257
     22 C           1.9705    3.3156    4.1567 C.ar    1  UNL11       0.1234
     23 F           1.5894    4.2467    5.0768 F       1  UNL11      -0.2055
     24 C           3.2938    3.0078    3.9860 C.ar    1  UNL11      -0.0257
     25 C           3.6495    2.0600    3.0495 C.ar    1  UNL11      -0.0469
     26 H          -0.7745    2.4091   -1.2464 H       1  UNL11       0.0483
     27 H          -1.5537    1.0846   -2.1187 H       1  UNL11       0.0483
     28 H          -6.1339    2.0211   -0.5562 H       1  UNL11       0.0661
     29 H          -7.7106    2.0303    1.3131 H       1  UNL11       0.0619
     30 H          -6.9024    1.6065    3.6278 H       1  UNL11       0.0618
     31 H          -4.5337    1.1751    3.9962 H       1  UNL11       0.0627
     32 H          -0.7808    0.9195    1.4385 H       1  UNL11       0.3013
     33 H           1.0902    1.9280    0.1974 H       1  UNL11       0.1728
     34 H           2.6225   -0.5681   -0.4881 H       1  UNL11       0.1731
     35 H           0.5964    1.2774    1.9012 H       1  UNL11       0.0626
     36 H          -0.0718    2.9210    3.5260 H       1  UNL11       0.0646
     37 H           4.0835    3.4890    4.5637 H       1  UNL11       0.0646
     38 H           4.7121    1.8330    2.9337 H       1  UNL11       0.0626
@<TRIPOS>BOND
     1     1     2    2
     2     2     3    1
     3     2    15   am
     4     3     4    1
     5     3    26    1
     6     3    27    1
     7     4     5    2
     8     5     6    1
     9     6     7   ar
    10     7     8   ar
    11     7    28    1
    12     8     9   ar
    13     8    29    1
    14     9    10   ar
    15     9    30    1
    16    10    11   ar
    17    10    31    1
    18    11    12    1
    19    11     6   ar
    20    12    13    2
    21    12    14   am
    22    14     4    1
    23    14    32    1
    24    15    16    1
    25    15    33    1
    26    16    17   am
    27    16    34    1
    28    17    18    2
    29    17    19    1
    30    19    20   ar
    31    20    21   ar
    32    20    35    1
    33    21    22   ar
    34    21    36    1
    35    22    23    1
    36    22    24   ar
    37    24    25   ar
    38    24    37    1
    39    25    19   ar
    40    25    38    1
@<TRIPOS>MOLECULE
*****
 38 40 0 0 0
SMALL
GASTEIGER

@<TRIPOS>ATOM
      1 O           0.0532   -0.7386   -1.2761 O.2     1  UNL11      -0.2737
      2 C           0.0043    0.4506   -0.8680 C.2     1  UNL11       0.2407
      3 C          -1.1531    1.3541   -1.1050 C.3     1  UNL11       0.1288
      4 C          -0.8325    2.7762   -1.2117 C.2     1  UNL11       0.3035
      5 N           0.4106    3.2744   -1.1085 N.2     1  UNL11      -0.0449
      6 C           0.6868    4.5803   -1.1684 C.ar    1  UNL11       0.1904
      7 C           1.9285    5.1466   -1.0576 C.ar    1  UNL11      -0.0100
      8 C           2.1376    6.5061   -1.1159 C.ar    1  UNL11      -0.0576
      9 C           1.0811    7.3440   -1.2916 C.ar    1  UNL11      -0.0607
     10 C          -0.1897    6.8133   -1.4075 C.ar    1  UNL11      -0.0432
     11 C          -0.3857    5.4497   -1.3464 C.ar    1  UNL11       0.1121
     12 C          -1.6704    4.9278   -1.4551 C.2     1  UNL11       0.3368
     13 O          -2.6662    5.7055   -1.6198 O.2     1  UNL11      -0.2416
     14 N          -1.8719    3.6260   -1.3876 N.am    1  UNL11      -0.1698
     15 N           1.1552    0.9193   -0.1407 N.am    1  UNL11      -0.2337
     16 N           1.3099    2.1815    0.4086 N.am    1  UNL11      -0.2304
     17 C           2.6037    2.7461    0.5126 C.2     1  UNL11       0.2601
     18 O           3.5731    2.0303    0.0787 O.2     1  UNL11      -0.2687
     19 C           2.9137    4.0348    1.0552 C.ar    1  UNL11       0.0383
     20 C           2.0994    4.5549    2.0426 C.ar    1  UNL11      -0.0469
     21 C           2.3314    5.7776    2.6079 C.ar    1  UNL11      -0.0257
     22 C           3.4216    6.4876    2.1530 C.ar    1  UNL11       0.1234
     23 F           3.6611    7.7074    2.7129 F       1  UNL11      -0.2055
     24 C           4.2449    5.9980    1.1746 C.ar    1  UNL11      -0.0257
     25 C           3.9795    4.7599    0.6282 C.ar    1  UNL11      -0.0469
     26 H          -1.7016    1.0151   -2.0326 H       1  UNL11       0.0483
     27 H          -1.8846    1.1430   -0.2798 H       1  UNL11       0.0483
     28 H           2.7996    4.4994   -0.9096 H       1  UNL11       0.0661
     29 H           3.1275    6.9198   -1.0296 H       1  UNL11       0.0619
     30 H           1.1745    8.4280   -1.3482 H       1  UNL11       0.0618
     31 H          -1.0514    7.4595   -1.5476 H       1  UNL11       0.0627
     32 H          -2.8627    3.2876   -1.4733 H       1  UNL11       0.3013
     33 H           1.9399    0.2055   -0.0372 H       1  UNL11       0.1728
     34 H           0.5005    2.7281    0.7456 H       1  UNL11       0.1731
     35 H           1.2361    3.9785    2.3934 H       1  UNL11       0.0626
     36 H           1.6623    6.1315    3.3789 H       1  UNL11       0.0646
     37 H           5.1068    6.5545    0.8055 H       1  UNL11       0.0646
     38 H           4.6524    4.3926   -0.1506 H       1  UNL11       0.0626
@<TRIPOS>BOND
     1     1     2    2
     2     2     3    1
     3     2    15   am
     4     3     4    1
     5     3    26    1
     6     3    27    1
     7     4     5    2
     8     5     6    1
     9     6     7   ar
    10     7     8   ar
    11     7    28    1
    12     8     9   ar
    13     8    29    1
    14     9    10   ar
    15     9    30    1
    16    10    11   ar
    17    10    31    1
    18    11    12    1
    19    11     6   ar
    20    12    13    2
    21    12    14   am
    22    14     4    1
    23    14    32    1
    24    15    16    1
    25    15    33    1
    26    16    17   am
    27    16    34    1
    28    17    18    2
    29    17    19    1
    30    19    20   ar
    31    20    21   ar
    32    20    35    1
    33    21    22   ar
    34    21    36    1
    35    22    23    1
    36    22    24   ar
    37    24    25   ar
    38    24    37    1
    39    25    19   ar
    40    25    38    1
@<TRIPOS>MOLECULE
*****
 38 40 0 0 0
SMALL
GASTEIGER

@<TRIPOS>ATOM
      1 O           0.0532   -0.7386   -1.2761 O.2     1  UNL11      -0.2737
      2 C           0.0043    0.4506   -0.8680 C.2     1  UNL11       0.2407
      3 C          -1.1531    1.3541   -1.1050 C.3     1  UNL11       0.1288
      4 C          -0.8325    2.7762   -1.2117 C.2     1  UNL11       0.3035
      5 N          -1.5297    3.6480   -1.9587 N.2     1  UNL11      -0.0449
      6 C          -1.2036    4.9381   -2.0796 C.ar    1  UNL11       0.1904
      7 C          -1.8666    5.8690   -2.8338 C.ar    1  UNL11      -0.0100
      8 C          -1.4646    7.1827   -2.9223 C.ar    1  UNL11      -0.0576
      9 C          -0.3647    7.5988   -2.2395 C.ar    1  UNL11      -0.0607
     10 C           0.3339    6.6908   -1.4665 C.ar    1  UNL11      -0.0432
     11 C          -0.0787    5.3775   -1.3871 C.ar    1  UNL11       0.1121
     12 C           0.6378    4.4706   -0.6133 C.2     1  UNL11       0.3368
     13 O           1.6697    4.8517    0.0298 O.2     1  UNL11      -0.2416
     14 N           0.2593    3.2093   -0.5378 N.am    1  UNL11      -0.1698
     15 N           1.1552    0.9193   -0.1407 N.am    1  UNL11      -0.2337
     16 N           2.2929    0.1813    0.1421 N.am    1  UNL11      -0.2304
     17 C           2.1964   -1.2223    0.2970 C.2     1  UNL11       0.2601
     18 O           1.0287   -1.7305    0.1612 O.2     1  UNL11      -0.2687
     19 C           3.2826   -2.1091    0.5886 C.ar    1  UNL11       0.0383
     20 C           4.5507   -1.5819    0.7385 C.ar    1  UNL11      -0.0469
     21 C           5.6360   -2.3647    1.0170 C.ar    1  UNL11      -0.0257
     22 C           5.4214   -3.7202    1.1448 C.ar    1  UNL11       0.1234
     23 F           6.4984   -4.5080    1.4244 F       1  UNL11      -0.2055
     24 C           4.1761   -4.2708    0.9999 C.ar    1  UNL11      -0.0257
     25 C           3.1047   -3.4489    0.7197 C.ar    1  UNL11      -0.0469
     26 H          -1.7016    1.0151   -2.0326 H       1  UNL11       0.0483
     27 H          -1.8846    1.1430   -0.2798 H       1  UNL11       0.0483
     28 H          -2.7531    5.5643   -3.4004 H       1  UNL11       0.0661
     29 H          -2.0105    7.8912   -3.5209 H       1  UNL11       0.0619
     30 H           0.0078    8.6224   -2.2632 H       1  UNL11       0.0618
     31 H           1.2163    6.9960   -0.9115 H       1  UNL11       0.0627
     32 H           0.8389    2.5680    0.0592 H       1  UNL11       0.3013
     33 H           1.0902    1.9280    0.1974 H       1  UNL11       0.1728
     34 H           3.2181    0.6300    0.2420 H       1  UNL11       0.1731
     35 H           4.7054   -0.5022    0.6334 H       1  UNL11       0.0626
     36 H           6.6032   -1.8960    1.1268 H       1  UNL11       0.0646
     37 H           3.9977   -5.3423    1.0949 H       1  UNL11       0.0646
     38 H           2.1220   -3.9139    0.6094 H       1  UNL11       0.0626
@<TRIPOS>BOND
     1     1     2    2
     2     2     3    1
     3     2    15   am
     4     3     4    1
     5     3    26    1
     6     3    27    1
     7     4     5    2
     8     5     6    1
     9     6     7   ar
    10     7     8   ar
    11     7    28    1
    12     8     9   ar
    13     8    29    1
    14     9    10   ar
    15     9    30    1
    16    10    11   ar
    17    10    31    1
    18    11    12    1
    19    11     6   ar
    20    12    13    2
    21    12    14   am
    22    14     4    1
    23    14    32    1
    24    15    16    1
    25    15    33    1
    26    16    17   am
    27    16    34    1
    28    17    18    2
    29    17    19    1
    30    19    20   ar
    31    20    21   ar
    32    20    35    1
    33    21    22   ar
    34    21    36    1
    35    22    23    1
    36    22    24   ar
    37    24    25   ar
    38    24    37    1
    39    25    19   ar
    40    25    38    1
