@<TRIPOS>MOLECULE
*****
 37 39 0 0 0
SMALL
GASTEIGER

@<TRIPOS>ATOM
      1 O           1.3020    1.1818   -0.3231 O.2     1  UNL11      -0.2751
      2 C           0.3532    0.5119    0.1770 C.2     1  UNL11       0.2232
      3 C          -0.9848    1.1369    0.1807 C.3     1  UNL11       0.0728
      4 C          -1.9782    0.0558    0.0829 C.2     1  UNL11       0.1237
      5 N          -3.2076    0.2001    0.6555 N.2     1  UNL11      -0.0071
      6 N          -4.1273   -0.7378    0.6664 N.am    1  UNL11      -0.0356
      7 C          -3.9151   -1.9540    0.0926 C.2     1  UNL11       0.4383
      8 O          -4.8259   -2.8452    0.1279 O.2     1  UNL11      -0.2116
      9 C          -2.7023   -2.1892   -0.5092 C.ar    1  UNL11       0.1004
     10 C          -2.4682   -3.4432   -1.0794 C.ar    1  UNL11      -0.0441
     11 C          -1.2285   -3.6651   -1.6534 C.ar    1  UNL11      -0.0608
     12 C          -0.2848   -2.6590   -1.6479 C.ar    1  UNL11      -0.0611
     13 C          -0.5564   -1.4300   -1.0746 C.ar    1  UNL11      -0.0518
     14 C          -1.7616   -1.1806   -0.5003 C.ar    1  UNL11       0.0194
     15 N           0.6495   -0.7873    0.7076 N.am    1  UNL11      -0.2852
     16 C          -0.4283   -1.5262    1.2483 C.ar    1  UNL11       0.0339
     17 C          -1.1391   -0.9918    2.2959 C.ar    1  UNL11      -0.0405
     18 C          -2.1836   -1.7009    2.9234 C.ar    1  UNL11      -0.0595
     19 C          -2.4971   -2.9747    2.4593 C.ar    1  UNL11      -0.0500
     20 C          -1.7919   -3.5226    1.4036 C.ar    1  UNL11       0.0566
     21 C          -2.1864   -4.8694    0.9538 C.3     1  UNL11       0.4175
     22 F          -3.2442   -5.3737    1.7028 F       1  UNL11      -0.1659
     23 F          -2.6166   -4.7865   -0.3850 F       1  UNL11      -0.1659
     24 F          -1.1287   -5.7496    0.9942 F       1  UNL11      -0.1659
     25 C          -0.7823   -2.8022    0.8227 C.ar    1  UNL11      -0.0288
     26 H          -1.0759    1.8063   -0.6570 H       1  UNL11       0.0425
     27 H          -1.0423    1.6644    1.1712 H       1  UNL11       0.0425
     28 H          -5.0421   -0.5587    1.1384 H       1  UNL11       0.4829
     29 H          -3.2037   -4.2247   -1.0832 H       1  UNL11       0.0627
     30 H          -0.9785   -4.6308   -2.1007 H       1  UNL11       0.0618
     31 H           0.6669   -2.8902   -2.1129 H       1  UNL11       0.0618
     32 H           0.1807   -0.6422   -1.0698 H       1  UNL11       0.0624
     33 H           1.6577   -1.1390    0.6593 H       1  UNL11       0.1548
     34 H          -0.9808    0.0074    2.6913 H       1  UNL11       0.0636
     35 H          -2.7113   -1.2509    3.7441 H       1  UNL11       0.0618
     36 H          -3.2999   -3.5016    2.9591 H       1  UNL11       0.0623
     37 H          -0.2329   -3.2405   -0.0027 H       1  UNL11       0.0642
@<TRIPOS>BOND
     1     1     2    2
     2     2     3    1
     3     2    15   am
     4     3     4    1
     5     3    26    1
     6     3    27    1
     7     4     5    2
     8     5     6    1
     9     6     7   am
    10     6    28    1
    11     7     8    2
    12     7     9    1
    13     9    10   ar
    14    10    11   ar
    15    10    29    1
    16    11    12   ar
    17    11    30    1
    18    12    13   ar
    19    12    31    1
    20    13    14   ar
    21    13    32    1
    22    14     4    1
    23    14     9   ar
    24    15    16    1
    25    15    33    1
    26    16    17   ar
    27    17    18   ar
    28    17    34    1
    29    18    19   ar
    30    18    35    1
    31    19    20   ar
    32    19    36    1
    33    20    21    1
    34    20    25   ar
    35    21    22    1
    36    21    23    1
    37    21    24    1
    38    25    16   ar
    39    25    37    1
@<TRIPOS>MOLECULE
*****
 37 39 0 0 0
SMALL
GASTEIGER

@<TRIPOS>ATOM
      1 O           0.9102    0.3468   -0.9462 O.2     1  UNL11      -0.2751
      2 C           0.3532    0.5119    0.1770 C.2     1  UNL11       0.2232
      3 C          -0.9848    1.1369    0.1807 C.3     1  UNL11       0.0728
      4 C          -1.9782    0.0558    0.0829 C.2     1  UNL11       0.1237
      5 N          -3.1747    0.2774   -0.5329 N.2     1  UNL11      -0.0071
      6 N          -4.1375   -0.6130   -0.6091 N.am    1  UNL11      -0.0356
      7 C          -4.0083   -1.8541   -0.0646 C.2     1  UNL11       0.4383
      8 O          -4.9653   -2.6921   -0.1492 O.2     1  UNL11      -0.2116
      9 C          -2.8341   -2.1664    0.5771 C.ar    1  UNL11       0.1004
     10 C          -2.7031   -3.4299    1.1592 C.ar    1  UNL11      -0.0441
     11 C          -1.5224   -3.7098    1.8249 C.ar    1  UNL11      -0.0608
     12 C          -0.5312   -2.7524    1.8867 C.ar    1  UNL11      -0.0611
     13 C          -0.6989   -1.5134    1.2953 C.ar    1  UNL11      -0.0518
     14 C          -1.8463   -1.2056    0.6371 C.ar    1  UNL11       0.0194
     15 N           1.0626    0.0933    1.3512 N.am    1  UNL11      -0.2852
     16 C           0.4157    0.2727    2.5959 C.ar    1  UNL11       0.0339
     17 C           0.0458    1.5408    2.9743 C.ar    1  UNL11      -0.0405
     18 C          -0.5449    1.7995    4.2279 C.ar    1  UNL11      -0.0595
     19 C          -0.7576    0.7337    5.0970 C.ar    1  UNL11      -0.0500
     20 C          -0.3931   -0.5478    4.7271 C.ar    1  UNL11       0.0566
     21 C          -0.6606   -1.6310    5.6898 C.3     1  UNL11       0.4175
     22 F          -1.2583   -1.1527    6.8509 F       1  UNL11      -0.1659
     23 F          -1.5545   -2.5453    5.0987 F       1  UNL11      -0.1659
     24 F           0.4861   -2.3223    6.0096 F       1  UNL11      -0.1659
     25 C           0.1805   -0.7569    3.5011 C.ar    1  UNL11      -0.0288
     26 H          -1.0759    1.8063   -0.6570 H       1  UNL11       0.0425
     27 H          -1.0423    1.6644    1.1712 H       1  UNL11       0.0425
     28 H          -5.0340   -0.3650   -1.0852 H       1  UNL11       0.4829
     29 H          -3.4751   -4.1737    1.1099 H       1  UNL11       0.0627
     30 H          -1.3661   -4.6742    2.3155 H       1  UNL11       0.0618
     31 H           0.3714   -3.0287    2.4201 H       1  UNL11       0.0618
     32 H           0.0756   -0.7638    1.3427 H       1  UNL11       0.0624
     33 H           2.0316   -0.3418    1.2323 H       1  UNL11       0.1548
     34 H           0.1441    2.4174    2.3405 H       1  UNL11       0.0636
     35 H          -0.8141    2.8063    4.4894 H       1  UNL11       0.0618
     36 H          -1.2086    0.9570    6.0555 H       1  UNL11       0.0623
     37 H           0.4655   -1.7644    3.2203 H       1  UNL11       0.0642
@<TRIPOS>BOND
     1     1     2    2
     2     2     3    1
     3     2    15   am
     4     3     4    1
     5     3    26    1
     6     3    27    1
     7     4     5    2
     8     5     6    1
     9     6     7   am
    10     6    28    1
    11     7     8    2
    12     7     9    1
    13     9    10   ar
    14    10    11   ar
    15    10    29    1
    16    11    12   ar
    17    11    30    1
    18    12    13   ar
    19    12    31    1
    20    13    14   ar
    21    13    32    1
    22    14     4    1
    23    14     9   ar
    24    15    16    1
    25    15    33    1
    26    16    17   ar
    27    17    18   ar
    28    17    34    1
    29    18    19   ar
    30    18    35    1
    31    19    20   ar
    32    19    36    1
    33    20    21    1
    34    20    25   ar
    35    21    22    1
    36    21    23    1
    37    21    24    1
    38    25    16   ar
    39    25    37    1
@<TRIPOS>MOLECULE
*****
 37 39 0 0 0
SMALL
GASTEIGER

@<TRIPOS>ATOM
      1 O           0.4012   -0.7491    0.0963 O.2     1  UNL11      -0.2751
      2 C           0.3532    0.5119    0.1770 C.2     1  UNL11       0.2232
      3 C          -0.9848    1.1369    0.1807 C.3     1  UNL11       0.0728
      4 C          -1.9782    0.0558    0.0829 C.2     1  UNL11       0.1237
      5 N          -3.3098    0.3487    0.0506 N.2     1  UNL11      -0.0071
      6 N          -4.2607   -0.5573    0.0255 N.am    1  UNL11      -0.0356
      7 C          -3.9794   -1.8893    0.0305 C.2     1  UNL11       0.4383
      8 O          -4.9263   -2.7427    0.0139 O.2     1  UNL11      -0.2116
      9 C          -2.6618   -2.2781    0.0624 C.ar    1  UNL11       0.1004
     10 C          -2.3657   -3.6433    0.0918 C.ar    1  UNL11      -0.0441
     11 C          -1.0322   -4.0089    0.1533 C.ar    1  UNL11      -0.0608
     12 C          -0.0582   -3.0325    0.1785 C.ar    1  UNL11      -0.0611
     13 C          -0.3926   -1.6909    0.1458 C.ar    1  UNL11      -0.0518
     14 C          -1.6915   -1.2983    0.0884 C.ar    1  UNL11       0.0194
     15 N           1.5916    1.2322    0.2467 N.am    1  UNL11      -0.2852
     16 C           1.5155    2.6404    0.3520 C.ar    1  UNL11       0.0339
     17 C           2.0937    3.4108   -0.6280 C.ar    1  UNL11      -0.0405
     18 C           2.1103    4.8185   -0.5533 C.ar    1  UNL11      -0.0595
     19 C           1.5195    5.4346    0.5457 C.ar    1  UNL11      -0.0500
     20 C           0.9312    4.6710    1.5371 C.ar    1  UNL11       0.0566
     21 C           0.3112    5.3891    2.6649 C.3     1  UNL11       0.4175
     22 F           0.4325    6.7677    2.5273 F       1  UNL11      -0.1659
     23 F          -1.0639    5.0848    2.6883 F       1  UNL11      -0.1659
     24 F           0.8421    4.9953    3.8725 F       1  UNL11      -0.1659
     25 C           0.9383    3.3058    1.4286 C.ar    1  UNL11      -0.0288
     26 H          -1.0759    1.8063   -0.6570 H       1  UNL11       0.0425
     27 H          -1.0423    1.6644    1.1712 H       1  UNL11       0.0425
     28 H          -5.2611   -0.2560    0.0164 H       1  UNL11       0.4829
     29 H          -3.1248   -4.4017    0.0718 H       1  UNL11       0.0627
     30 H          -0.7368   -5.0606    0.1958 H       1  UNL11       0.0618
     31 H           0.9682   -3.3787    0.2256 H       1  UNL11       0.0618
     32 H           0.3682   -0.9262    0.1652 H       1  UNL11       0.0624
     33 H           2.5049    0.6772    0.2289 H       1  UNL11       0.1548
     34 H           2.5415    3.0090   -1.5323 H       1  UNL11       0.0636
     35 H           2.5783    5.3854   -1.3369 H       1  UNL11       0.0618
     36 H           1.5480    6.5161    0.5835 H       1  UNL11       0.0623
     37 H           0.4771    2.7149    2.2116 H       1  UNL11       0.0642
@<TRIPOS>BOND
     1     1     2    2
     2     2     3    1
     3     2    15   am
     4     3     4    1
     5     3    26    1
     6     3    27    1
     7     4     5    2
     8     5     6    1
     9     6     7   am
    10     6    28    1
    11     7     8    2
    12     7     9    1
    13     9    10   ar
    14    10    11   ar
    15    10    29    1
    16    11    12   ar
    17    11    30    1
    18    12    13   ar
    19    12    31    1
    20    13    14   ar
    21    13    32    1
    22    14     4    1
    23    14     9   ar
    24    15    16    1
    25    15    33    1
    26    16    17   ar
    27    17    18   ar
    28    17    34    1
    29    18    19   ar
    30    18    35    1
    31    19    20   ar
    32    19    36    1
    33    20    21    1
    34    20    25   ar
    35    21    22    1
    36    21    23    1
    37    21    24    1
    38    25    16   ar
    39    25    37    1
@<TRIPOS>MOLECULE
*****
 37 39 0 0 0
SMALL
GASTEIGER

@<TRIPOS>ATOM
      1 O           1.2706    1.1080    0.8111 O.2     1  UNL11      -0.2751
      2 C           0.3532    0.5119    0.1770 C.2     1  UNL11       0.2232
      3 C          -0.9848    1.1369    0.1807 C.3     1  UNL11       0.0728
      4 C          -1.9782    0.0558    0.0829 C.2     1  UNL11       0.1237
      5 N          -3.1747    0.2774   -0.5329 N.2     1  UNL11      -0.0071
      6 N          -4.1375   -0.6130   -0.6091 N.am    1  UNL11      -0.0356
      7 C          -4.0083   -1.8541   -0.0646 C.2     1  UNL11       0.4383
      8 O          -4.9653   -2.6921   -0.1492 O.2     1  UNL11      -0.2116
      9 C          -2.8341   -2.1664    0.5771 C.ar    1  UNL11       0.1004
     10 C          -2.7031   -3.4299    1.1592 C.ar    1  UNL11      -0.0441
     11 C          -1.5224   -3.7098    1.8249 C.ar    1  UNL11      -0.0608
     12 C          -0.5312   -2.7524    1.8867 C.ar    1  UNL11      -0.0611
     13 C          -0.6989   -1.5134    1.2953 C.ar    1  UNL11      -0.0518
     14 C          -1.8463   -1.2056    0.6371 C.ar    1  UNL11       0.0194
     15 N           0.6775   -0.7203   -0.4816 N.am    1  UNL11      -0.2852
     16 C          -0.3588   -1.3630   -1.1978 C.ar    1  UNL11       0.0339
     17 C          -1.6042   -0.7829   -1.2256 C.ar    1  UNL11      -0.0405
     18 C          -2.6974   -1.4008   -1.8665 C.ar    1  UNL11      -0.0595
     19 C          -2.4981   -2.6300   -2.4875 C.ar    1  UNL11      -0.0500
     20 C          -1.2489   -3.2228   -2.4699 C.ar    1  UNL11       0.0566
     21 C          -1.1053   -4.5171   -3.1597 C.3     1  UNL11       0.4175
     22 F          -2.3032   -4.9321   -3.7315 F       1  UNL11      -0.1659
     23 F          -0.1679   -4.3685   -4.2006 F       1  UNL11      -0.1659
     24 F          -0.6321   -5.4948   -2.3139 F       1  UNL11      -0.1659
     25 C          -0.2131   -2.5912   -1.8342 C.ar    1  UNL11      -0.0288
     26 H          -1.0759    1.8063   -0.6570 H       1  UNL11       0.0425
     27 H          -1.0423    1.6644    1.1712 H       1  UNL11       0.0425
     28 H          -5.0340   -0.3650   -1.0852 H       1  UNL11       0.4829
     29 H          -3.4751   -4.1737    1.1099 H       1  UNL11       0.0627
     30 H          -1.3661   -4.6742    2.3155 H       1  UNL11       0.0618
     31 H           0.3714   -3.0287    2.4201 H       1  UNL11       0.0618
     32 H           0.0756   -0.7638    1.3427 H       1  UNL11       0.0624
     33 H           1.6795   -1.0860   -0.4124 H       1  UNL11       0.1548
     34 H          -1.8320    0.1890   -0.7975 H       1  UNL11       0.0636
     35 H          -3.6573   -0.9180   -1.8604 H       1  UNL11       0.0618
     36 H          -3.3528   -3.0871   -2.9695 H       1  UNL11       0.0623
     37 H           0.7621   -3.0643   -1.8231 H       1  UNL11       0.0642
@<TRIPOS>BOND
     1     1     2    2
     2     2     3    1
     3     2    15   am
     4     3     4    1
     5     3    26    1
     6     3    27    1
     7     4     5    2
     8     5     6    1
     9     6     7   am
    10     6    28    1
    11     7     8    2
    12     7     9    1
    13     9    10   ar
    14    10    11   ar
    15    10    29    1
    16    11    12   ar
    17    11    30    1
    18    12    13   ar
    19    12    31    1
    20    13    14   ar
    21    13    32    1
    22    14     4    1
    23    14     9   ar
    24    15    16    1
    25    15    33    1
    26    16    17   ar
    27    17    18   ar
    28    17    34    1
    29    18    19   ar
    30    18    35    1
    31    19    20   ar
    32    19    36    1
    33    20    21    1
    34    20    25   ar
    35    21    22    1
    36    21    23    1
    37    21    24    1
    38    25    16   ar
    39    25    37    1
@<TRIPOS>MOLECULE
*****
 37 39 0 0 0
SMALL
GASTEIGER

@<TRIPOS>ATOM
      1 O           1.0870    0.7126    1.1871 O.2     1  UNL11      -0.2751
      2 C           0.3532    0.5119    0.1770 C.2     1  UNL11       0.2232
      3 C          -0.9848    1.1369    0.1807 C.3     1  UNL11       0.0728
      4 C          -1.9782    0.0558    0.0829 C.2     1  UNL11       0.1237
      5 N          -3.2076    0.2001    0.6555 N.2     1  UNL11      -0.0071
      6 N          -4.1273   -0.7378    0.6664 N.am    1  UNL11      -0.0356
      7 C          -3.9151   -1.9540    0.0926 C.2     1  UNL11       0.4383
      8 O          -4.8259   -2.8452    0.1279 O.2     1  UNL11      -0.2116
      9 C          -2.7023   -2.1892   -0.5092 C.ar    1  UNL11       0.1004
     10 C          -2.4682   -3.4432   -1.0794 C.ar    1  UNL11      -0.0441
     11 C          -1.2285   -3.6651   -1.6534 C.ar    1  UNL11      -0.0608
     12 C          -0.2848   -2.6590   -1.6479 C.ar    1  UNL11      -0.0611
     13 C          -0.5564   -1.4300   -1.0746 C.ar    1  UNL11      -0.0518
     14 C          -1.7616   -1.1806   -0.5003 C.ar    1  UNL11       0.0194
     15 N           0.8683   -0.3095   -0.8800 N.am    1  UNL11      -0.2852
     16 C           0.0379   -0.5089   -2.0072 C.ar    1  UNL11       0.0339
     17 C          -1.1954   -1.0878   -1.8281 C.ar    1  UNL11      -0.0405
     18 C          -2.0468   -1.3735   -2.9149 C.ar    1  UNL11      -0.0595
     19 C          -1.6181   -1.0535   -4.1994 C.ar    1  UNL11      -0.0500
     20 C          -0.3808   -0.4674   -4.3931 C.ar    1  UNL11       0.0566
     21 C           0.0035   -0.1416   -5.7780 C.3     1  UNL11       0.4175
     22 F          -0.9891   -0.4964   -6.6852 F       1  UNL11      -0.1659
     23 F           0.1887    1.2514   -5.8757 F       1  UNL11      -0.1659
     24 F           1.1907   -0.7421   -6.1314 F       1  UNL11      -0.1659
     25 C           0.4179   -0.2083   -3.3111 C.ar    1  UNL11      -0.0288
     26 H          -1.0759    1.8063   -0.6570 H       1  UNL11       0.0425
     27 H          -1.0423    1.6644    1.1712 H       1  UNL11       0.0425
     28 H          -5.0421   -0.5587    1.1384 H       1  UNL11       0.4829
     29 H          -3.2037   -4.2247   -1.0832 H       1  UNL11       0.0627
     30 H          -0.9785   -4.6308   -2.1007 H       1  UNL11       0.0618
     31 H           0.6669   -2.8902   -2.1129 H       1  UNL11       0.0618
     32 H           0.1807   -0.6422   -1.0698 H       1  UNL11       0.0624
     33 H           1.8502   -0.7184   -0.7744 H       1  UNL11       0.1548
     34 H          -1.6168   -1.3332   -0.8576 H       1  UNL11       0.0636
     35 H          -3.0011   -1.8330   -2.7339 H       1  UNL11       0.0618
     36 H          -2.2869   -1.2858   -5.0184 H       1  UNL11       0.0623
     37 H           1.3874    0.2490   -3.4723 H       1  UNL11       0.0642
@<TRIPOS>BOND
     1     1     2    2
     2     2     3    1
     3     2    15   am
     4     3     4    1
     5     3    26    1
     6     3    27    1
     7     4     5    2
     8     5     6    1
     9     6     7   am
    10     6    28    1
    11     7     8    2
    12     7     9    1
    13     9    10   ar
    14    10    11   ar
    15    10    29    1
    16    11    12   ar
    17    11    30    1
    18    12    13   ar
    19    12    31    1
    20    13    14   ar
    21    13    32    1
    22    14     4    1
    23    14     9   ar
    24    15    16    1
    25    15    33    1
    26    16    17   ar
    27    17    18   ar
    28    17    34    1
    29    18    19   ar
    30    18    35    1
    31    19    20   ar
    32    19    36    1
    33    20    21    1
    34    20    25   ar
    35    21    22    1
    36    21    23    1
    37    21    24    1
    38    25    16   ar
    39    25    37    1
@<TRIPOS>MOLECULE
*****
 37 39 0 0 0
SMALL
GASTEIGER

@<TRIPOS>ATOM
      1 O           0.9102    0.3468   -0.9462 O.2     1  UNL11      -0.2751
      2 C           0.3532    0.5119    0.1770 C.2     1  UNL11       0.2232
      3 C          -0.9848    1.1369    0.1807 C.3     1  UNL11       0.0728
      4 C          -1.9782    0.0558    0.0829 C.2     1  UNL11       0.1237
      5 N          -3.2076    0.2001    0.6555 N.2     1  UNL11      -0.0071
      6 N          -4.1273   -0.7378    0.6664 N.am    1  UNL11      -0.0356
      7 C          -3.9151   -1.9540    0.0926 C.2     1  UNL11       0.4383
      8 O          -4.8259   -2.8452    0.1279 O.2     1  UNL11      -0.2116
      9 C          -2.7023   -2.1892   -0.5092 C.ar    1  UNL11       0.1004
     10 C          -2.4682   -3.4432   -1.0794 C.ar    1  UNL11      -0.0441
     11 C          -1.2285   -3.6651   -1.6534 C.ar    1  UNL11      -0.0608
     12 C          -0.2848   -2.6590   -1.6479 C.ar    1  UNL11      -0.0611
     13 C          -0.5564   -1.4300   -1.0746 C.ar    1  UNL11      -0.0518
     14 C          -1.7616   -1.1806   -0.5003 C.ar    1  UNL11       0.0194
     15 N           1.0626    0.0933    1.3512 N.am    1  UNL11      -0.2852
     16 C           0.4157    0.2727    2.5959 C.ar    1  UNL11       0.0339
     17 C           0.0458    1.5408    2.9743 C.ar    1  UNL11      -0.0405
     18 C          -0.5449    1.7995    4.2279 C.ar    1  UNL11      -0.0595
     19 C          -0.7576    0.7337    5.0970 C.ar    1  UNL11      -0.0500
     20 C          -0.3931   -0.5478    4.7271 C.ar    1  UNL11       0.0566
     21 C          -0.6606   -1.6310    5.6898 C.3     1  UNL11       0.4175
     22 F          -1.2583   -1.1527    6.8509 F       1  UNL11      -0.1659
     23 F          -1.5545   -2.5453    5.0987 F       1  UNL11      -0.1659
     24 F           0.4861   -2.3223    6.0096 F       1  UNL11      -0.1659
     25 C           0.1805   -0.7569    3.5011 C.ar    1  UNL11      -0.0288
     26 H          -1.0759    1.8063   -0.6570 H       1  UNL11       0.0425
     27 H          -1.0423    1.6644    1.1712 H       1  UNL11       0.0425
     28 H          -5.0421   -0.5587    1.1384 H       1  UNL11       0.4829
     29 H          -3.2037   -4.2247   -1.0832 H       1  UNL11       0.0627
     30 H          -0.9785   -4.6308   -2.1007 H       1  UNL11       0.0618
     31 H           0.6669   -2.8902   -2.1129 H       1  UNL11       0.0618
     32 H           0.1807   -0.6422   -1.0698 H       1  UNL11       0.0624
     33 H           2.0316   -0.3418    1.2323 H       1  UNL11       0.1548
     34 H           0.1441    2.4174    2.3405 H       1  UNL11       0.0636
     35 H          -0.8141    2.8063    4.4894 H       1  UNL11       0.0618
     36 H          -1.2086    0.9570    6.0555 H       1  UNL11       0.0623
     37 H           0.4655   -1.7644    3.2203 H       1  UNL11       0.0642
@<TRIPOS>BOND
     1     1     2    2
     2     2     3    1
     3     2    15   am
     4     3     4    1
     5     3    26    1
     6     3    27    1
     7     4     5    2
     8     5     6    1
     9     6     7   am
    10     6    28    1
    11     7     8    2
    12     7     9    1
    13     9    10   ar
    14    10    11   ar
    15    10    29    1
    16    11    12   ar
    17    11    30    1
    18    12    13   ar
    19    12    31    1
    20    13    14   ar
    21    13    32    1
    22    14     4    1
    23    14     9   ar
    24    15    16    1
    25    15    33    1
    26    16    17   ar
    27    17    18   ar
    28    17    34    1
    29    18    19   ar
    30    18    35    1
    31    19    20   ar
    32    19    36    1
    33    20    21    1
    34    20    25   ar
    35    21    22    1
    36    21    23    1
    37    21    24    1
    38    25    16   ar
    39    25    37    1
@<TRIPOS>MOLECULE
*****
 37 39 0 0 0
SMALL
GASTEIGER

@<TRIPOS>ATOM
      1 O           1.3510    1.2833    0.2687 O.2     1  UNL11      -0.2751
      2 C           0.3532    0.5119    0.1770 C.2     1  UNL11       0.2232
      3 C          -0.9848    1.1369    0.1807 C.3     1  UNL11       0.0728
      4 C          -1.9782    0.0558    0.0829 C.2     1  UNL11       0.1237
      5 N          -2.8476    0.0161   -0.9671 N.2     1  UNL11      -0.0071
      6 N          -3.8017   -0.8775   -1.0973 N.am    1  UNL11      -0.0356
      7 C          -3.9978   -1.8543   -0.1695 C.2     1  UNL11       0.4383
      8 O          -4.9383   -2.7013   -0.3220 O.2     1  UNL11      -0.2116
      9 C          -3.1672   -1.8918    0.9245 C.ar    1  UNL11       0.1004
     10 C          -3.3772   -2.8768    1.8930 C.ar    1  UNL11      -0.0441
     11 C          -2.5460   -2.8754    2.9997 C.ar    1  UNL11      -0.0608
     12 C          -1.5539   -1.9229    3.1058 C.ar    1  UNL11      -0.0611
     13 C          -1.3771   -0.9652    2.1238 C.ar    1  UNL11      -0.0518
     14 C          -2.1772   -0.9368    1.0268 C.ar    1  UNL11       0.0194
     15 N           0.5956   -0.8990    0.0887 N.am    1  UNL11      -0.2852
     16 C          -0.5331   -1.7430   -0.0286 C.ar    1  UNL11       0.0339
     17 C          -1.1185   -2.2301    1.1152 C.ar    1  UNL11      -0.0405
     18 C          -2.2060   -3.1261    1.0695 C.ar    1  UNL11      -0.0595
     19 C          -2.6942   -3.5188   -0.1729 C.ar    1  UNL11      -0.0500
     20 C          -2.1163   -3.0333   -1.3315 C.ar    1  UNL11       0.0566
     21 C          -2.6928   -3.4791   -2.6125 C.3     1  UNL11       0.4175
     22 F          -3.7625   -4.3471   -2.4219 F       1  UNL11      -0.1659
     23 F          -3.1798   -2.3511   -3.3014 F       1  UNL11      -0.1659
     24 F          -1.7477   -4.0772   -3.4151 F       1  UNL11      -0.1659
     25 C          -1.0596   -2.1664   -1.2444 C.ar    1  UNL11      -0.0288
     26 H          -1.0759    1.8063   -0.6570 H       1  UNL11       0.0425
     27 H          -1.0423    1.6644    1.1712 H       1  UNL11       0.0425
     28 H          -4.4397   -0.8352   -1.9236 H       1  UNL11       0.4829
     29 H          -4.1494   -3.6174    1.8086 H       1  UNL11       0.0627
     30 H          -2.6706   -3.6097    3.7999 H       1  UNL11       0.0618
     31 H          -0.9334   -1.9721    3.9936 H       1  UNL11       0.0618
     32 H          -0.6013   -0.2198    2.2054 H       1  UNL11       0.0624
     33 H           1.6073   -1.2435    0.1026 H       1  UNL11       0.1548
     34 H          -0.8208   -1.9442    2.1199 H       1  UNL11       0.0636
     35 H          -2.6320   -3.4896    1.9865 H       1  UNL11       0.0618
     36 H          -3.5269   -4.2104   -0.1832 H       1  UNL11       0.0623
     37 H          -0.6111   -1.7927   -2.1578 H       1  UNL11       0.0642
@<TRIPOS>BOND
     1     1     2    2
     2     2     3    1
     3     2    15   am
     4     3     4    1
     5     3    26    1
     6     3    27    1
     7     4     5    2
     8     5     6    1
     9     6     7   am
    10     6    28    1
    11     7     8    2
    12     7     9    1
    13     9    10   ar
    14    10    11   ar
    15    10    29    1
    16    11    12   ar
    17    11    30    1
    18    12    13   ar
    19    12    31    1
    20    13    14   ar
    21    13    32    1
    22    14     4    1
    23    14     9   ar
    24    15    16    1
    25    15    33    1
    26    16    17   ar
    27    17    18   ar
    28    17    34    1
    29    18    19   ar
    30    18    35    1
    31    19    20   ar
    32    19    36    1
    33    20    21    1
    34    20    25   ar
    35    21    22    1
    36    21    23    1
    37    21    24    1
    38    25    16   ar
    39    25    37    1
@<TRIPOS>MOLECULE
*****
 37 39 0 0 0
SMALL
GASTEIGER

@<TRIPOS>ATOM
      1 O           0.9102    0.3468   -0.9462 O.2     1  UNL11      -0.2751
      2 C           0.3532    0.5119    0.1770 C.2     1  UNL11       0.2232
      3 C          -0.9848    1.1369    0.1807 C.3     1  UNL11       0.0728
      4 C          -1.9782    0.0558    0.0829 C.2     1  UNL11       0.1237
      5 N          -3.1747    0.2774   -0.5329 N.2     1  UNL11      -0.0071
      6 N          -4.1375   -0.6130   -0.6091 N.am    1  UNL11      -0.0356
      7 C          -4.0083   -1.8541   -0.0646 C.2     1  UNL11       0.4383
      8 O          -4.9653   -2.6921   -0.1492 O.2     1  UNL11      -0.2116
      9 C          -2.8341   -2.1664    0.5771 C.ar    1  UNL11       0.1004
     10 C          -2.7031   -3.4299    1.1592 C.ar    1  UNL11      -0.0441
     11 C          -1.5224   -3.7098    1.8249 C.ar    1  UNL11      -0.0608
     12 C          -0.5312   -2.7524    1.8867 C.ar    1  UNL11      -0.0611
     13 C          -0.6989   -1.5134    1.2953 C.ar    1  UNL11      -0.0518
     14 C          -1.8463   -1.2056    0.6371 C.ar    1  UNL11       0.0194
     15 N           1.0626    0.0933    1.3512 N.am    1  UNL11      -0.2852
     16 C           2.3429   -0.4777    1.1640 C.ar    1  UNL11       0.0339
     17 C           3.4304    0.1273    1.7467 C.ar    1  UNL11      -0.0405
     18 C           4.7415   -0.3516    1.5490 C.ar    1  UNL11      -0.0595
     19 C           4.9279   -1.4701    0.7425 C.ar    1  UNL11      -0.0500
     20 C           3.8417   -2.0904    0.1530 C.ar    1  UNL11       0.0566
     21 C           4.1099   -3.2785   -0.6766 C.3     1  UNL11       0.4175
     22 F           5.4670   -3.5794   -0.7223 F       1  UNL11      -0.1659
     23 F           3.4499   -4.3833   -0.1038 F       1  UNL11      -0.1659
     24 F           3.6256   -3.1257   -1.9561 F       1  UNL11      -0.1659
     25 C           2.5840   -1.5925    0.3678 C.ar    1  UNL11      -0.0288
     26 H          -1.0759    1.8063   -0.6570 H       1  UNL11       0.0425
     27 H          -1.0423    1.6644    1.1712 H       1  UNL11       0.0425
     28 H          -5.0340   -0.3650   -1.0852 H       1  UNL11       0.4829
     29 H          -3.4751   -4.1737    1.1099 H       1  UNL11       0.0627
     30 H          -1.3661   -4.6742    2.3155 H       1  UNL11       0.0618
     31 H           0.3714   -3.0287    2.4201 H       1  UNL11       0.0618
     32 H           0.0756   -0.7638    1.3427 H       1  UNL11       0.0624
     33 H           0.6020    0.2417    2.3042 H       1  UNL11       0.1548
     34 H           3.3654    0.9795    2.4170 H       1  UNL11       0.0636
     35 H           5.5664    0.1534    2.0169 H       1  UNL11       0.0618
     36 H           5.9436   -1.8172    0.6019 H       1  UNL11       0.0623
     37 H           1.7385   -2.0834   -0.1002 H       1  UNL11       0.0642
@<TRIPOS>BOND
     1     1     2    2
     2     2     3    1
     3     2    15   am
     4     3     4    1
     5     3    26    1
     6     3    27    1
     7     4     5    2
     8     5     6    1
     9     6     7   am
    10     6    28    1
    11     7     8    2
    12     7     9    1
    13     9    10   ar
    14    10    11   ar
    15    10    29    1
    16    11    12   ar
    17    11    30    1
    18    12    13   ar
    19    12    31    1
    20    13    14   ar
    21    13    32    1
    22    14     4    1
    23    14     9   ar
    24    15    16    1
    25    15    33    1
    26    16    17   ar
    27    17    18   ar
    28    17    34    1
    29    18    19   ar
    30    18    35    1
    31    19    20   ar
    32    19    36    1
    33    20    21    1
    34    20    25   ar
    35    21    22    1
    36    21    23    1
    37    21    24    1
    38    25    16   ar
    39    25    37    1
@<TRIPOS>MOLECULE
*****
 37 39 0 0 0
SMALL
GASTEIGER

@<TRIPOS>ATOM
      1 O           1.3020    1.1818   -0.3231 O.2     1  UNL11      -0.2751
      2 C           0.3532    0.5119    0.1770 C.2     1  UNL11       0.2232
      3 C          -0.9848    1.1369    0.1807 C.3     1  UNL11       0.0728
      4 C          -1.9782    0.0558    0.0829 C.2     1  UNL11       0.1237
      5 N          -2.9039   -0.1164    1.0695 N.2     1  UNL11      -0.0071
      6 N          -3.7841   -1.0913    1.0887 N.am    1  UNL11      -0.0356
      7 C          -3.8379   -2.0255    0.0999 C.2     1  UNL11       0.4383
      8 O          -4.6994   -2.9638    0.1529 O.2     1  UNL11      -0.2116
      9 C          -2.9413   -1.9309   -0.9372 C.ar    1  UNL11       0.1004
     10 C          -2.9747   -2.8996   -1.9435 C.ar    1  UNL11      -0.0441
     11 C          -2.0425   -2.7989   -2.9615 C.ar    1  UNL11      -0.0608
     12 C          -1.1317   -1.7629   -2.9517 C.ar    1  UNL11      -0.0611
     13 C          -1.1328   -0.8223   -1.9378 C.ar    1  UNL11      -0.0518
     14 C          -2.0320   -0.8939   -0.9226 C.ar    1  UNL11       0.0194
     15 N           0.6495   -0.7873    0.7076 N.am    1  UNL11      -0.2852
     16 C          -0.4283   -1.5262    1.2483 C.ar    1  UNL11       0.0339
     17 C          -1.6848   -0.9701    1.2379 C.ar    1  UNL11      -0.0405
     18 C          -2.7915   -1.6240    1.8169 C.ar    1  UNL11      -0.0595
     19 C          -2.5955   -2.8675    2.4098 C.ar    1  UNL11      -0.0500
     20 C          -1.3367   -3.4397    2.4241 C.ar    1  UNL11       0.0566
     21 C          -1.2038   -4.7647    3.0554 C.3     1  UNL11       0.4175
     22 F          -2.4203   -5.2259    3.5468 F       1  UNL11      -0.1659
     23 F          -0.7645   -5.6830    2.0817 F       1  UNL11      -0.1659
     24 F          -0.2691   -4.7554    4.0660 F       1  UNL11      -0.1659
     25 C          -0.2869   -2.7709    1.8529 C.ar    1  UNL11      -0.0288
     26 H          -1.0759    1.8063   -0.6570 H       1  UNL11       0.0425
     27 H          -1.0423    1.6644    1.1712 H       1  UNL11       0.0425
     28 H          -4.4537   -1.1671    1.8872 H       1  UNL11       0.4829
     29 H          -3.6842   -3.7047   -1.9498 H       1  UNL11       0.0627
     30 H          -2.0064   -3.5354   -3.7686 H       1  UNL11       0.0618
     31 H          -0.4269   -1.7348   -3.7752 H       1  UNL11       0.0618
     32 H          -0.4211   -0.0114   -1.9291 H       1  UNL11       0.0624
     33 H           1.6577   -1.1390    0.6593 H       1  UNL11       0.1548
     34 H          -1.9267   -0.0231    0.7642 H       1  UNL11       0.0636
     35 H          -3.7569   -1.1529    1.7941 H       1  UNL11       0.0618
     36 H          -3.4588   -3.3486    2.8515 H       1  UNL11       0.0623
     37 H           0.6969   -3.2257    1.8709 H       1  UNL11       0.0642
@<TRIPOS>BOND
     1     1     2    2
     2     2     3    1
     3     2    15   am
     4     3     4    1
     5     3    26    1
     6     3    27    1
     7     4     5    2
     8     5     6    1
     9     6     7   am
    10     6    28    1
    11     7     8    2
    12     7     9    1
    13     9    10   ar
    14    10    11   ar
    15    10    29    1
    16    11    12   ar
    17    11    30    1
    18    12    13   ar
    19    12    31    1
    20    13    14   ar
    21    13    32    1
    22    14     4    1
    23    14     9   ar
    24    15    16    1
    25    15    33    1
    26    16    17   ar
    27    17    18   ar
    28    17    34    1
    29    18    19   ar
    30    18    35    1
    31    19    20   ar
    32    19    36    1
    33    20    21    1
    34    20    25   ar
    35    21    22    1
    36    21    23    1
    37    21    24    1
    38    25    16   ar
    39    25    37    1
@<TRIPOS>MOLECULE
*****
 37 39 0 0 0
SMALL
GASTEIGER

@<TRIPOS>ATOM
      1 O           0.8482    0.2008    1.2982 O.2     1  UNL11      -0.2751
      2 C           0.3532    0.5119    0.1770 C.2     1  UNL11       0.2232
      3 C          -0.9848    1.1369    0.1807 C.3     1  UNL11       0.0728
      4 C          -1.9782    0.0558    0.0829 C.2     1  UNL11       0.1237
      5 N          -1.6700   -1.1021   -0.5685 N.2     1  UNL11      -0.0071
      6 N          -2.5172   -2.0889   -0.7529 N.am    1  UNL11      -0.0356
      7 C          -3.7981   -2.0263   -0.2960 C.2     1  UNL11       0.4383
      8 O          -4.5974   -2.9985   -0.4989 O.2     1  UNL11      -0.2116
      9 C          -4.1979   -0.8948    0.3733 C.ar    1  UNL11       0.1004
     10 C          -5.5178   -0.8132    0.8245 C.ar    1  UNL11      -0.0441
     11 C          -5.9041    0.3486    1.4699 C.ar    1  UNL11      -0.0608
     12 C          -4.9897    1.3661    1.6472 C.ar    1  UNL11      -0.0611
     13 C          -3.6910    1.2457    1.1873 C.ar    1  UNL11      -0.0518
     14 C          -3.2804    0.1203    0.5474 C.ar    1  UNL11       0.0194
     15 N           1.1181    0.2259   -1.0021 N.am    1  UNL11      -0.2852
     16 C           0.5532    0.5956   -2.2448 C.ar    1  UNL11       0.0339
     17 C          -0.4449    1.5399   -2.2648 C.ar    1  UNL11      -0.0405
     18 C          -1.0951    1.9085   -3.4602 C.ar    1  UNL11      -0.0595
     19 C          -0.7056    1.2953   -4.6470 C.ar    1  UNL11      -0.0500
     20 C           0.2998    0.3460   -4.6412 C.ar    1  UNL11       0.0566
     21 C           0.6720   -0.2521   -5.9356 C.3     1  UNL11       0.4175
     22 F          -0.0863    0.2661   -6.9799 F       1  UNL11      -0.1659
     23 F           2.0215    0.0542   -6.1992 F       1  UNL11      -0.1659
     24 F           0.5561   -1.6237   -5.9146 F       1  UNL11      -0.1659
     25 C           0.9050    0.0139   -3.4583 C.ar    1  UNL11      -0.0288
     26 H          -1.0759    1.8063   -0.6570 H       1  UNL11       0.0425
     27 H          -1.0423    1.6644    1.1712 H       1  UNL11       0.0425
     28 H          -2.2121   -2.9407   -1.2755 H       1  UNL11       0.4829
     29 H          -6.2278   -1.6060    0.6860 H       1  UNL11       0.0627
     30 H          -6.9275    0.4799    1.8310 H       1  UNL11       0.0618
     31 H          -5.3490    2.2511    2.1604 H       1  UNL11       0.0618
     32 H          -2.9748    2.0406    1.3255 H       1  UNL11       0.0624
     33 H           2.0747   -0.2370   -0.8885 H       1  UNL11       0.1548
     34 H          -0.7800    2.0891   -1.3897 H       1  UNL11       0.0636
     35 H          -1.8756    2.6464   -3.4331 H       1  UNL11       0.0618
     36 H          -1.2218    1.5913   -5.5514 H       1  UNL11       0.0623
     37 H           1.6904   -0.7331   -3.4627 H       1  UNL11       0.0642
@<TRIPOS>BOND
     1     1     2    2
     2     2     3    1
     3     2    15   am
     4     3     4    1
     5     3    26    1
     6     3    27    1
     7     4     5    2
     8     5     6    1
     9     6     7   am
    10     6    28    1
    11     7     8    2
    12     7     9    1
    13     9    10   ar
    14    10    11   ar
    15    10    29    1
    16    11    12   ar
    17    11    30    1
    18    12    13   ar
    19    12    31    1
    20    13    14   ar
    21    13    32    1
    22    14     4    1
    23    14     9   ar
    24    15    16    1
    25    15    33    1
    26    16    17   ar
    27    17    18   ar
    28    17    34    1
    29    18    19   ar
    30    18    35    1
    31    19    20   ar
    32    19    36    1
    33    20    21    1
    34    20    25   ar
    35    21    22    1
    36    21    23    1
    37    21    24    1
    38    25    16   ar
    39    25    37    1
@<TRIPOS>MOLECULE
*****
 37 39 0 0 0
SMALL
GASTEIGER

@<TRIPOS>ATOM
      1 O           0.9102    0.3468   -0.9462 O.2     1  UNL11      -0.2751
      2 C           0.3532    0.5119    0.1770 C.2     1  UNL11       0.2232
      3 C          -0.9848    1.1369    0.1807 C.3     1  UNL11       0.0728
      4 C          -1.9782    0.0558    0.0829 C.2     1  UNL11       0.1237
      5 N          -1.6700   -1.1021   -0.5685 N.2     1  UNL11      -0.0071
      6 N          -2.5172   -2.0889   -0.7529 N.am    1  UNL11      -0.0356
      7 C          -3.7981   -2.0263   -0.2960 C.2     1  UNL11       0.4383
      8 O          -4.5974   -2.9985   -0.4989 O.2     1  UNL11      -0.2116
      9 C          -4.1979   -0.8948    0.3733 C.ar    1  UNL11       0.1004
     10 C          -5.5178   -0.8132    0.8245 C.ar    1  UNL11      -0.0441
     11 C          -5.9041    0.3486    1.4699 C.ar    1  UNL11      -0.0608
     12 C          -4.9897    1.3661    1.6472 C.ar    1  UNL11      -0.0611
     13 C          -3.6910    1.2457    1.1873 C.ar    1  UNL11      -0.0518
     14 C          -3.2804    0.1203    0.5474 C.ar    1  UNL11       0.0194
     15 N           1.0626    0.0933    1.3512 N.am    1  UNL11      -0.2852
     16 C           0.4157    0.2727    2.5959 C.ar    1  UNL11       0.0339
     17 C           1.0114    1.0691    3.5441 C.ar    1  UNL11      -0.0405
     18 C           0.4536    1.2400    4.8275 C.ar    1  UNL11      -0.0595
     19 C          -0.7345    0.5822    5.1309 C.ar    1  UNL11      -0.0500
     20 C          -1.3459   -0.2194    4.1845 C.ar    1  UNL11       0.0566
     21 C          -2.6092   -0.8743    4.5680 C.3     1  UNL11       0.4175
     22 F          -2.9797   -0.5569    5.8704 F       1  UNL11      -0.1659
     23 F          -3.6299   -0.4144    3.7130 F       1  UNL11      -0.1659
     24 F          -2.5369   -2.2418    4.4269 F       1  UNL11      -0.1659
     25 C          -0.7706   -0.3616    2.9498 C.ar    1  UNL11      -0.0288
     26 H          -1.0759    1.8063   -0.6570 H       1  UNL11       0.0425
     27 H          -1.0423    1.6644    1.1712 H       1  UNL11       0.0425
     28 H          -2.2121   -2.9407   -1.2755 H       1  UNL11       0.4829
     29 H          -6.2278   -1.6060    0.6860 H       1  UNL11       0.0627
     30 H          -6.9275    0.4799    1.8310 H       1  UNL11       0.0618
     31 H          -5.3490    2.2511    2.1604 H       1  UNL11       0.0618
     32 H          -2.9748    2.0406    1.3255 H       1  UNL11       0.0624
     33 H           2.0316   -0.3418    1.2323 H       1  UNL11       0.1548
     34 H           1.9173    1.6436    3.3737 H       1  UNL11       0.0636
     35 H           0.9535    1.8661    5.5435 H       1  UNL11       0.0618
     36 H          -1.1417    0.7252    6.1237 H       1  UNL11       0.0623
     37 H          -1.2554   -0.9940    2.2149 H       1  UNL11       0.0642
@<TRIPOS>BOND
     1     1     2    2
     2     2     3    1
     3     2    15   am
     4     3     4    1
     5     3    26    1
     6     3    27    1
     7     4     5    2
     8     5     6    1
     9     6     7   am
    10     6    28    1
    11     7     8    2
    12     7     9    1
    13     9    10   ar
    14    10    11   ar
    15    10    29    1
    16    11    12   ar
    17    11    30    1
    18    12    13   ar
    19    12    31    1
    20    13    14   ar
    21    13    32    1
    22    14     4    1
    23    14     9   ar
    24    15    16    1
    25    15    33    1
    26    16    17   ar
    27    17    18   ar
    28    17    34    1
    29    18    19   ar
    30    18    35    1
    31    19    20   ar
    32    19    36    1
    33    20    21    1
    34    20    25   ar
    35    21    22    1
    36    21    23    1
    37    21    24    1
    38    25    16   ar
    39    25    37    1
@<TRIPOS>MOLECULE
*****
 37 39 0 0 0
SMALL
GASTEIGER

@<TRIPOS>ATOM
      1 O           0.6070   -0.3144    1.0999 O.2     1  UNL11      -0.2751
      2 C           0.3532    0.5119    0.1770 C.2     1  UNL11       0.2232
      3 C          -0.9848    1.1369    0.1807 C.3     1  UNL11       0.0728
      4 C          -1.9782    0.0558    0.0829 C.2     1  UNL11       0.1237
      5 N          -3.3098    0.3487    0.0506 N.2     1  UNL11      -0.0071
      6 N          -4.2607   -0.5573    0.0255 N.am    1  UNL11      -0.0356
      7 C          -3.9794   -1.8893    0.0305 C.2     1  UNL11       0.4383
      8 O          -4.9263   -2.7427    0.0139 O.2     1  UNL11      -0.2116
      9 C          -2.6618   -2.2781    0.0624 C.ar    1  UNL11       0.1004
     10 C          -2.3657   -3.6433    0.0918 C.ar    1  UNL11      -0.0441
     11 C          -1.0322   -4.0089    0.1533 C.ar    1  UNL11      -0.0608
     12 C          -0.0582   -3.0325    0.1785 C.ar    1  UNL11      -0.0611
     13 C          -0.3926   -1.6909    0.1458 C.ar    1  UNL11      -0.0518
     14 C          -1.6915   -1.2983    0.0884 C.ar    1  UNL11       0.0194
     15 N           1.3716    0.7675   -0.8001 N.am    1  UNL11      -0.2852
     16 C           2.5940    0.0707   -0.6575 C.ar    1  UNL11       0.0339
     17 C           3.0078   -0.7570   -1.6734 C.ar    1  UNL11      -0.0405
     18 C           4.1827   -1.5294   -1.5703 C.ar    1  UNL11      -0.0595
     19 C           4.9382   -1.4412   -0.4051 C.ar    1  UNL11      -0.0500
     20 C           4.5347   -0.6094    0.6232 C.ar    1  UNL11       0.0566
     21 C           5.3898   -0.5533    1.8222 C.3     1  UNL11       0.4175
     22 F           6.4998   -1.3827    1.7029 F       1  UNL11      -0.1659
     23 F           5.8607    0.7654    1.9755 F       1  UNL11      -0.1659
     24 F           4.6895   -0.8772    2.9623 F       1  UNL11      -0.1659
     25 C           3.3855    0.1227    0.4851 C.ar    1  UNL11      -0.0288
     26 H          -1.0759    1.8063   -0.6570 H       1  UNL11       0.0425
     27 H          -1.0423    1.6644    1.1712 H       1  UNL11       0.0425
     28 H          -5.2611   -0.2560    0.0164 H       1  UNL11       0.4829
     29 H          -3.1248   -4.4017    0.0718 H       1  UNL11       0.0627
     30 H          -0.7368   -5.0606    0.1958 H       1  UNL11       0.0618
     31 H           0.9682   -3.3787    0.2256 H       1  UNL11       0.0618
     32 H           0.3682   -0.9262    0.1652 H       1  UNL11       0.0624
     33 H           1.1583    1.4556   -1.5897 H       1  UNL11       0.1548
     34 H           2.4952   -0.8535   -2.6261 H       1  UNL11       0.0636
     35 H           4.4691   -2.1697   -2.3843 H       1  UNL11       0.0618
     36 H           5.8339   -2.0463   -0.3471 H       1  UNL11       0.0623
     37 H           3.0753    0.7702    1.2972 H       1  UNL11       0.0642
@<TRIPOS>BOND
     1     1     2    2
     2     2     3    1
     3     2    15   am
     4     3     4    1
     5     3    26    1
     6     3    27    1
     7     4     5    2
     8     5     6    1
     9     6     7   am
    10     6    28    1
    11     7     8    2
    12     7     9    1
    13     9    10   ar
    14    10    11   ar
    15    10    29    1
    16    11    12   ar
    17    11    30    1
    18    12    13   ar
    19    12    31    1
    20    13    14   ar
    21    13    32    1
    22    14     4    1
    23    14     9   ar
    24    15    16    1
    25    15    33    1
    26    16    17   ar
    27    17    18   ar
    28    17    34    1
    29    18    19   ar
    30    18    35    1
    31    19    20   ar
    32    19    36    1
    33    20    21    1
    34    20    25   ar
    35    21    22    1
    36    21    23    1
    37    21    24    1
    38    25    16   ar
    39    25    37    1
@<TRIPOS>MOLECULE
*****
 37 39 0 0 0
SMALL
GASTEIGER

@<TRIPOS>ATOM
      1 O           0.4787   -0.5799   -0.4485 O.2     1  UNL11      -0.2751
      2 C           0.3532    0.5119    0.1770 C.2     1  UNL11       0.2232
      3 C          -0.9848    1.1369    0.1807 C.3     1  UNL11       0.0728
      4 C          -1.9782    0.0558    0.0829 C.2     1  UNL11       0.1237
      5 N          -2.4141   -0.3667   -1.1383 N.2     1  UNL11      -0.0071
      6 N          -3.3411   -1.2814   -1.3112 N.am    1  UNL11      -0.0356
      7 C          -3.9505   -1.8898   -0.2568 C.2     1  UNL11       0.4383
      8 O          -4.8523   -2.7679   -0.4593 O.2     1  UNL11      -0.2116
      9 C          -3.5739   -1.5261    1.0137 C.ar    1  UNL11       0.1004
     10 C          -4.2116   -2.1289    2.1010 C.ar    1  UNL11      -0.0441
     11 C          -3.8352   -1.7243    3.3699 C.ar    1  UNL11      -0.0608
     12 C          -2.8586   -0.7613    3.5167 C.ar    1  UNL11      -0.0611
     13 C          -2.2495   -0.1899    2.4142 C.ar    1  UNL11      -0.0518
     14 C          -2.5976   -0.5621    1.1554 C.ar    1  UNL11       0.0194
     15 N           1.5126    1.0598    0.8194 N.am    1  UNL11      -0.2852
     16 C           1.3474    2.2735    1.5263 C.ar    1  UNL11       0.0339
     17 C           1.0153    2.2248    2.8589 C.ar    1  UNL11      -0.0405
     18 C           0.7734    3.3947    3.6074 C.ar    1  UNL11      -0.0595
     19 C           0.8796    4.6273    2.9705 C.ar    1  UNL11      -0.0500
     20 C           1.2165    4.6903    1.6309 C.ar    1  UNL11       0.0566
     21 C           1.3259    6.0287    1.0238 C.3     1  UNL11       0.4175
     22 F           1.0595    7.0359    1.9451 F       1  UNL11      -0.1659
     23 F           2.6472    6.2082    0.5699 F       1  UNL11      -0.1659
     24 F           0.4933    6.1636   -0.0642 F       1  UNL11      -0.1659
     25 C           1.4411    3.5305    0.9381 C.ar    1  UNL11      -0.0288
     26 H          -1.0759    1.8063   -0.6570 H       1  UNL11       0.0425
     27 H          -1.0423    1.6644    1.1712 H       1  UNL11       0.0425
     28 H          -3.6341   -1.5434   -2.2793 H       1  UNL11       0.4829
     29 H          -4.9710   -2.8783    1.9851 H       1  UNL11       0.0627
     30 H          -4.3089   -2.1461    4.2604 H       1  UNL11       0.0618
     31 H          -2.6045   -0.4855    4.5340 H       1  UNL11       0.0618
     32 H          -1.4853    0.5633    2.5276 H       1  UNL11       0.0624
     33 H           2.4354    0.5255    0.7460 H       1  UNL11       0.1548
     34 H           0.9486    1.3069    3.4357 H       1  UNL11       0.0636
     35 H           0.5095    3.3143    4.6459 H       1  UNL11       0.0618
     36 H           0.6854    5.5114    3.5643 H       1  UNL11       0.0623
     37 H           1.7022    3.5891   -0.1124 H       1  UNL11       0.0642
@<TRIPOS>BOND
     1     1     2    2
     2     2     3    1
     3     2    15   am
     4     3     4    1
     5     3    26    1
     6     3    27    1
     7     4     5    2
     8     5     6    1
     9     6     7   am
    10     6    28    1
    11     7     8    2
    12     7     9    1
    13     9    10   ar
    14    10    11   ar
    15    10    29    1
    16    11    12   ar
    17    11    30    1
    18    12    13   ar
    19    12    31    1
    20    13    14   ar
    21    13    32    1
    22    14     4    1
    23    14     9   ar
    24    15    16    1
    25    15    33    1
    26    16    17   ar
    27    17    18   ar
    28    17    34    1
    29    18    19   ar
    30    18    35    1
    31    19    20   ar
    32    19    36    1
    33    20    21    1
    34    20    25   ar
    35    21    22    1
    36    21    23    1
    37    21    24    1
    38    25    16   ar
    39    25    37    1
@<TRIPOS>MOLECULE
*****
 37 39 0 0 0
SMALL
GASTEIGER

@<TRIPOS>ATOM
      1 O           0.8482    0.2008    1.2982 O.2     1  UNL11      -0.2751
      2 C           0.3532    0.5119    0.1770 C.2     1  UNL11       0.2232
      3 C          -0.9848    1.1369    0.1807 C.3     1  UNL11       0.0728
      4 C          -1.9782    0.0558    0.0829 C.2     1  UNL11       0.1237
      5 N          -3.3098    0.3487    0.0506 N.2     1  UNL11      -0.0071
      6 N          -4.2607   -0.5573    0.0255 N.am    1  UNL11      -0.0356
      7 C          -3.9794   -1.8893    0.0305 C.2     1  UNL11       0.4383
      8 O          -4.9263   -2.7427    0.0139 O.2     1  UNL11      -0.2116
      9 C          -2.6618   -2.2781    0.0624 C.ar    1  UNL11       0.1004
     10 C          -2.3657   -3.6433    0.0918 C.ar    1  UNL11      -0.0441
     11 C          -1.0322   -4.0089    0.1533 C.ar    1  UNL11      -0.0608
     12 C          -0.0582   -3.0325    0.1785 C.ar    1  UNL11      -0.0611
     13 C          -0.3926   -1.6909    0.1458 C.ar    1  UNL11      -0.0518
     14 C          -1.6915   -1.2983    0.0884 C.ar    1  UNL11       0.0194
     15 N           1.1181    0.2259   -1.0021 N.am    1  UNL11      -0.2852
     16 C           2.3793   -0.3879   -0.8217 C.ar    1  UNL11       0.0339
     17 C           3.5036    0.2627   -1.2701 C.ar    1  UNL11      -0.0405
     18 C           4.7844   -0.3194   -1.1798 C.ar    1  UNL11      -0.0595
     19 C           4.9025   -1.5863   -0.6167 C.ar    1  UNL11      -0.0500
     20 C           3.7795   -2.2504   -0.1584 C.ar    1  UNL11       0.0566
     21 C           3.9790   -3.5823    0.4398 C.3     1  UNL11       0.4175
     22 F           5.3196   -3.9526    0.4379 F       1  UNL11      -0.1659
     23 F           3.5532   -3.5391    1.7819 F       1  UNL11      -0.1659
     24 F           3.2313   -4.5448   -0.2001 F       1  UNL11      -0.1659
     25 C           2.5526   -1.6515   -0.2667 C.ar    1  UNL11      -0.0288
     26 H          -1.0759    1.8063   -0.6570 H       1  UNL11       0.0425
     27 H          -1.0423    1.6644    1.1712 H       1  UNL11       0.0425
     28 H          -5.2611   -0.2560    0.0164 H       1  UNL11       0.4829
     29 H          -3.1248   -4.4017    0.0718 H       1  UNL11       0.0627
     30 H          -0.7368   -5.0606    0.1958 H       1  UNL11       0.0618
     31 H           0.9682   -3.3787    0.2256 H       1  UNL11       0.0618
     32 H           0.3682   -0.9262    0.1652 H       1  UNL11       0.0624
     33 H           0.6993    0.4752   -1.9534 H       1  UNL11       0.1548
     34 H           3.5001    1.2656   -1.6870 H       1  UNL11       0.0636
     35 H           5.6383    0.2190   -1.5480 H       1  UNL11       0.0618
     36 H           5.8952   -2.0147   -0.5617 H       1  UNL11       0.0623
     37 H           1.6773   -2.1803    0.0928 H       1  UNL11       0.0642
@<TRIPOS>BOND
     1     1     2    2
     2     2     3    1
     3     2    15   am
     4     3     4    1
     5     3    26    1
     6     3    27    1
     7     4     5    2
     8     5     6    1
     9     6     7   am
    10     6    28    1
    11     7     8    2
    12     7     9    1
    13     9    10   ar
    14    10    11   ar
    15    10    29    1
    16    11    12   ar
    17    11    30    1
    18    12    13   ar
    19    12    31    1
    20    13    14   ar
    21    13    32    1
    22    14     4    1
    23    14     9   ar
    24    15    16    1
    25    15    33    1
    26    16    17   ar
    27    17    18   ar
    28    17    34    1
    29    18    19   ar
    30    18    35    1
    31    19    20   ar
    32    19    36    1
    33    20    21    1
    34    20    25   ar
    35    21    22    1
    36    21    23    1
    37    21    24    1
    38    25    16   ar
    39    25    37    1
@<TRIPOS>MOLECULE
*****
 37 39 0 0 0
SMALL
GASTEIGER

@<TRIPOS>ATOM
      1 O           0.8482    0.2008    1.2982 O.2     1  UNL11      -0.2751
      2 C           0.3532    0.5119    0.1770 C.2     1  UNL11       0.2232
      3 C          -0.9848    1.1369    0.1807 C.3     1  UNL11       0.0728
      4 C          -1.9782    0.0558    0.0829 C.2     1  UNL11       0.1237
      5 N          -2.8476    0.0161   -0.9671 N.2     1  UNL11      -0.0071
      6 N          -3.8017   -0.8775   -1.0973 N.am    1  UNL11      -0.0356
      7 C          -3.9978   -1.8543   -0.1695 C.2     1  UNL11       0.4383
      8 O          -4.9383   -2.7013   -0.3220 O.2     1  UNL11      -0.2116
      9 C          -3.1672   -1.8918    0.9245 C.ar    1  UNL11       0.1004
     10 C          -3.3772   -2.8768    1.8930 C.ar    1  UNL11      -0.0441
     11 C          -2.5460   -2.8754    2.9997 C.ar    1  UNL11      -0.0608
     12 C          -1.5539   -1.9229    3.1058 C.ar    1  UNL11      -0.0611
     13 C          -1.3771   -0.9652    2.1238 C.ar    1  UNL11      -0.0518
     14 C          -2.1772   -0.9368    1.0268 C.ar    1  UNL11       0.0194
     15 N           1.1181    0.2259   -1.0021 N.am    1  UNL11      -0.2852
     16 C           2.3793   -0.3879   -0.8217 C.ar    1  UNL11       0.0339
     17 C           3.4890    0.4086   -0.6719 C.ar    1  UNL11      -0.0405
     18 C           4.7837   -0.1361   -0.5518 C.ar    1  UNL11      -0.0595
     19 C           4.9304   -1.5195   -0.5839 C.ar    1  UNL11      -0.0500
     20 C           3.8214   -2.3324   -0.7306 C.ar    1  UNL11       0.0566
     21 C           4.0476   -3.7886   -0.7415 C.3     1  UNL11       0.4175
     22 F           5.3948   -4.1020   -0.5960 F       1  UNL11      -0.1659
     23 F           3.3602   -4.3571    0.3488 F       1  UNL11      -0.1659
     24 F           3.5573   -4.3712   -1.8883 F       1  UNL11      -0.1659
     25 C           2.5808   -1.7640   -0.8467 C.ar    1  UNL11      -0.0288
     26 H          -1.0759    1.8063   -0.6570 H       1  UNL11       0.0425
     27 H          -1.0423    1.6644    1.1712 H       1  UNL11       0.0425
     28 H          -4.4397   -0.8352   -1.9236 H       1  UNL11       0.4829
     29 H          -4.1494   -3.6174    1.8086 H       1  UNL11       0.0627
     30 H          -2.6706   -3.6097    3.7999 H       1  UNL11       0.0618
     31 H          -0.9334   -1.9721    3.9936 H       1  UNL11       0.0618
     32 H          -0.6013   -0.2198    2.2054 H       1  UNL11       0.0624
     33 H           0.6993    0.4752   -1.9534 H       1  UNL11       0.1548
     34 H           3.4548    1.4919   -0.6008 H       1  UNL11       0.0636
     35 H           5.6271    0.5208   -0.4429 H       1  UNL11       0.0618
     36 H           5.9342   -1.9147   -0.4939 H       1  UNL11       0.0623
     37 H           1.7173   -2.4087   -0.9639 H       1  UNL11       0.0642
@<TRIPOS>BOND
     1     1     2    2
     2     2     3    1
     3     2    15   am
     4     3     4    1
     5     3    26    1
     6     3    27    1
     7     4     5    2
     8     5     6    1
     9     6     7   am
    10     6    28    1
    11     7     8    2
    12     7     9    1
    13     9    10   ar
    14    10    11   ar
    15    10    29    1
    16    11    12   ar
    17    11    30    1
    18    12    13   ar
    19    12    31    1
    20    13    14   ar
    21    13    32    1
    22    14     4    1
    23    14     9   ar
    24    15    16    1
    25    15    33    1
    26    16    17   ar
    27    17    18   ar
    28    17    34    1
    29    18    19   ar
    30    18    35    1
    31    19    20   ar
    32    19    36    1
    33    20    21    1
    34    20    25   ar
    35    21    22    1
    36    21    23    1
    37    21    24    1
    38    25    16   ar
    39    25    37    1
@<TRIPOS>MOLECULE
*****
 37 39 0 0 0
SMALL
GASTEIGER

@<TRIPOS>ATOM
      1 O           0.6070   -0.3144    1.0999 O.2     1  UNL11      -0.2751
      2 C           0.3532    0.5119    0.1770 C.2     1  UNL11       0.2232
      3 C          -0.9848    1.1369    0.1807 C.3     1  UNL11       0.0728
      4 C          -1.9782    0.0558    0.0829 C.2     1  UNL11       0.1237
      5 N          -2.0444   -0.9044    1.0492 N.2     1  UNL11      -0.0071
      6 N          -2.8586   -1.9343    1.0065 N.am    1  UNL11      -0.0356
      7 C          -3.7178   -2.1239   -0.0323 C.2     1  UNL11       0.4383
      8 O          -4.4893   -3.1387   -0.0468 O.2     1  UNL11      -0.2116
      9 C          -3.7203   -1.2045   -1.0536 C.ar    1  UNL11       0.1004
     10 C          -4.5824   -1.4050   -2.1347 C.ar    1  UNL11      -0.0441
     11 C          -4.5452   -0.4808   -3.1643 C.ar    1  UNL11      -0.0608
     12 C          -3.6783    0.5895   -3.0886 C.ar    1  UNL11      -0.0611
     13 C          -2.8417    0.7536   -1.9995 C.ar    1  UNL11      -0.0518
     14 C          -2.8512   -0.1365   -0.9738 C.ar    1  UNL11       0.0194
     15 N           1.3716    0.7675   -0.8001 N.am    1  UNL11      -0.2852
     16 C           1.0731    1.7062   -1.8149 C.ar    1  UNL11       0.0339
     17 C           1.3788    3.0294   -1.6049 C.ar    1  UNL11      -0.0405
     18 C           1.0512    4.0260   -2.5467 C.ar    1  UNL11      -0.0595
     19 C           0.4037    3.6481   -3.7190 C.ar    1  UNL11      -0.0500
     20 C           0.0936    2.3195   -3.9441 C.ar    1  UNL11       0.0566
     21 C          -0.5789    1.9880   -5.2129 C.3     1  UNL11       0.4175
     22 F          -0.7922    3.1188   -5.9939 F       1  UNL11      -0.1659
     23 F           0.2512    1.1172   -5.9457 F       1  UNL11      -0.1659
     24 F          -1.7741    1.3388   -5.0009 F       1  UNL11      -0.1659
     25 C           0.4266    1.3818   -3.0030 C.ar    1  UNL11      -0.0288
     26 H          -1.0759    1.8063   -0.6570 H       1  UNL11       0.0425
     27 H          -1.0423    1.6644    1.1712 H       1  UNL11       0.0425
     28 H          -2.8420   -2.6383    1.7785 H       1  UNL11       0.4829
     29 H          -5.2565   -2.2381   -2.1919 H       1  UNL11       0.0627
     30 H          -5.1830   -0.5915   -4.0453 H       1  UNL11       0.0618
     31 H          -3.6943    1.2810   -3.9235 H       1  UNL11       0.0618
     32 H          -2.1634    1.5905   -1.9388 H       1  UNL11       0.0624
     33 H           2.3037    0.2522   -0.7105 H       1  UNL11       0.1548
     34 H           1.9144    3.3991   -0.7354 H       1  UNL11       0.0636
     35 H           1.3014    5.0508   -2.3426 H       1  UNL11       0.0618
     36 H           0.1586    4.4310   -4.4254 H       1  UNL11       0.0623
     37 H           0.1774    0.3430   -3.1865 H       1  UNL11       0.0642
@<TRIPOS>BOND
     1     1     2    2
     2     2     3    1
     3     2    15   am
     4     3     4    1
     5     3    26    1
     6     3    27    1
     7     4     5    2
     8     5     6    1
     9     6     7   am
    10     6    28    1
    11     7     8    2
    12     7     9    1
    13     9    10   ar
    14    10    11   ar
    15    10    29    1
    16    11    12   ar
    17    11    30    1
    18    12    13   ar
    19    12    31    1
    20    13    14   ar
    21    13    32    1
    22    14     4    1
    23    14     9   ar
    24    15    16    1
    25    15    33    1
    26    16    17   ar
    27    17    18   ar
    28    17    34    1
    29    18    19   ar
    30    18    35    1
    31    19    20   ar
    32    19    36    1
    33    20    21    1
    34    20    25   ar
    35    21    22    1
    36    21    23    1
    37    21    24    1
    38    25    16   ar
    39    25    37    1
@<TRIPOS>MOLECULE
*****
 37 39 0 0 0
SMALL
GASTEIGER

@<TRIPOS>ATOM
      1 O           1.3510    1.2833    0.2687 O.2     1  UNL11      -0.2751
      2 C           0.3532    0.5119    0.1770 C.2     1  UNL11       0.2232
      3 C          -0.9848    1.1369    0.1807 C.3     1  UNL11       0.0728
      4 C          -1.9782    0.0558    0.0829 C.2     1  UNL11       0.1237
      5 N          -1.6700   -1.1021   -0.5685 N.2     1  UNL11      -0.0071
      6 N          -2.5172   -2.0889   -0.7529 N.am    1  UNL11      -0.0356
      7 C          -3.7981   -2.0263   -0.2960 C.2     1  UNL11       0.4383
      8 O          -4.5974   -2.9985   -0.4989 O.2     1  UNL11      -0.2116
      9 C          -4.1979   -0.8948    0.3733 C.ar    1  UNL11       0.1004
     10 C          -5.5178   -0.8132    0.8245 C.ar    1  UNL11      -0.0441
     11 C          -5.9041    0.3486    1.4699 C.ar    1  UNL11      -0.0608
     12 C          -4.9897    1.3661    1.6472 C.ar    1  UNL11      -0.0611
     13 C          -3.6910    1.2457    1.1873 C.ar    1  UNL11      -0.0518
     14 C          -3.2804    0.1203    0.5474 C.ar    1  UNL11       0.0194
     15 N           0.5956   -0.8990    0.0887 N.am    1  UNL11      -0.2852
     16 C           1.9436   -1.3261    0.1108 C.ar    1  UNL11       0.0339
     17 C           2.4350   -2.0267   -0.9644 C.ar    1  UNL11      -0.0405
     18 C           3.7492   -2.5368   -0.9809 C.ar    1  UNL11      -0.0595
     19 C           4.5636   -2.3164    0.1257 C.ar    1  UNL11      -0.0500
     20 C           4.0825   -1.6099    1.2127 C.ar    1  UNL11       0.0566
     21 C           5.0034   -1.4007    2.3441 C.3     1  UNL11       0.4175
     22 F           6.2477   -1.9755    2.1088 F       1  UNL11      -0.1659
     23 F           5.2009   -0.0160    2.5109 F       1  UNL11      -0.1659
     24 F           4.4824   -1.8886    3.5212 F       1  UNL11      -0.1659
     25 C           2.7988   -1.1330    1.1908 C.ar    1  UNL11      -0.0288
     26 H          -1.0759    1.8063   -0.6570 H       1  UNL11       0.0425
     27 H          -1.0423    1.6644    1.1712 H       1  UNL11       0.0425
     28 H          -2.2121   -2.9407   -1.2755 H       1  UNL11       0.4829
     29 H          -6.2278   -1.6060    0.6860 H       1  UNL11       0.0627
     30 H          -6.9275    0.4799    1.8310 H       1  UNL11       0.0618
     31 H          -5.3490    2.2511    2.1604 H       1  UNL11       0.0618
     32 H          -2.9748    2.0406    1.3255 H       1  UNL11       0.0624
     33 H          -0.2444   -1.5567    0.0236 H       1  UNL11       0.1548
     34 H           1.8767   -2.2086   -1.8781 H       1  UNL11       0.0636
     35 H           4.0940   -3.0853   -1.8380 H       1  UNL11       0.0618
     36 H           5.5672   -2.7208    0.0921 H       1  UNL11       0.0623
     37 H           2.4290   -0.5825    2.0482 H       1  UNL11       0.0642
@<TRIPOS>BOND
     1     1     2    2
     2     2     3    1
     3     2    15   am
     4     3     4    1
     5     3    26    1
     6     3    27    1
     7     4     5    2
     8     5     6    1
     9     6     7   am
    10     6    28    1
    11     7     8    2
    12     7     9    1
    13     9    10   ar
    14    10    11   ar
    15    10    29    1
    16    11    12   ar
    17    11    30    1
    18    12    13   ar
    19    12    31    1
    20    13    14   ar
    21    13    32    1
    22    14     4    1
    23    14     9   ar
    24    15    16    1
    25    15    33    1
    26    16    17   ar
    27    17    18   ar
    28    17    34    1
    29    18    19   ar
    30    18    35    1
    31    19    20   ar
    32    19    36    1
    33    20    21    1
    34    20    25   ar
    35    21    22    1
    36    21    23    1
    37    21    24    1
    38    25    16   ar
    39    25    37    1
@<TRIPOS>MOLECULE
*****
 37 39 0 0 0
SMALL
GASTEIGER

@<TRIPOS>ATOM
      1 O           0.4012   -0.7491    0.0963 O.2     1  UNL11      -0.2751
      2 C           0.3532    0.5119    0.1770 C.2     1  UNL11       0.2232
      3 C          -0.9848    1.1369    0.1807 C.3     1  UNL11       0.0728
      4 C          -1.9782    0.0558    0.0829 C.2     1  UNL11       0.1237
      5 N          -2.8476    0.0161   -0.9671 N.2     1  UNL11      -0.0071
      6 N          -3.8017   -0.8775   -1.0973 N.am    1  UNL11      -0.0356
      7 C          -3.9978   -1.8543   -0.1695 C.2     1  UNL11       0.4383
      8 O          -4.9383   -2.7013   -0.3220 O.2     1  UNL11      -0.2116
      9 C          -3.1672   -1.8918    0.9245 C.ar    1  UNL11       0.1004
     10 C          -3.3772   -2.8768    1.8930 C.ar    1  UNL11      -0.0441
     11 C          -2.5460   -2.8754    2.9997 C.ar    1  UNL11      -0.0608
     12 C          -1.5539   -1.9229    3.1058 C.ar    1  UNL11      -0.0611
     13 C          -1.3771   -0.9652    2.1238 C.ar    1  UNL11      -0.0518
     14 C          -2.1772   -0.9368    1.0268 C.ar    1  UNL11       0.0194
     15 N           1.5916    1.2322    0.2467 N.am    1  UNL11      -0.2852
     16 C           1.5155    2.6404    0.3520 C.ar    1  UNL11       0.0339
     17 C           1.5022    3.3916   -0.7986 C.ar    1  UNL11      -0.0405
     18 C           1.4918    4.8010   -0.7655 C.ar    1  UNL11      -0.0595
     19 C           1.4918    5.4387    0.4713 C.ar    1  UNL11      -0.0500
     20 C           1.5016    4.6944    1.6367 C.ar    1  UNL11       0.0566
     21 C           1.4860    5.4341    2.9112 C.3     1  UNL11       0.4175
     22 F           1.4632    6.8098    2.7084 F       1  UNL11      -0.1659
     23 F           0.3151    5.0900    3.6147 F       1  UNL11      -0.1659
     24 F           2.5590    5.1005    3.7064 F       1  UNL11      -0.1659
     25 C           1.5142    3.3269    1.5618 C.ar    1  UNL11      -0.0288
     26 H          -1.0759    1.8063   -0.6570 H       1  UNL11       0.0425
     27 H          -1.0423    1.6644    1.1712 H       1  UNL11       0.0425
     28 H          -4.4397   -0.8352   -1.9236 H       1  UNL11       0.4829
     29 H          -4.1494   -3.6174    1.8086 H       1  UNL11       0.0627
     30 H          -2.6706   -3.6097    3.7999 H       1  UNL11       0.0618
     31 H          -0.9334   -1.9721    3.9936 H       1  UNL11       0.0618
     32 H          -0.6013   -0.2198    2.2054 H       1  UNL11       0.0624
     33 H           2.5049    0.6772    0.2289 H       1  UNL11       0.1548
     34 H           1.4643    2.9707   -1.7991 H       1  UNL11       0.0636
     35 H           1.4882    5.3527   -1.6875 H       1  UNL11       0.0618
     36 H           1.4878    6.5212    0.4718 H       1  UNL11       0.0623
     37 H           1.5244    2.7514    2.4803 H       1  UNL11       0.0642
@<TRIPOS>BOND
     1     1     2    2
     2     2     3    1
     3     2    15   am
     4     3     4    1
     5     3    26    1
     6     3    27    1
     7     4     5    2
     8     5     6    1
     9     6     7   am
    10     6    28    1
    11     7     8    2
    12     7     9    1
    13     9    10   ar
    14    10    11   ar
    15    10    29    1
    16    11    12   ar
    17    11    30    1
    18    12    13   ar
    19    12    31    1
    20    13    14   ar
    21    13    32    1
    22    14     4    1
    23    14     9   ar
    24    15    16    1
    25    15    33    1
    26    16    17   ar
    27    17    18   ar
    28    17    34    1
    29    18    19   ar
    30    18    35    1
    31    19    20   ar
    32    19    36    1
    33    20    21    1
    34    20    25   ar
    35    21    22    1
    36    21    23    1
    37    21    24    1
    38    25    16   ar
    39    25    37    1
@<TRIPOS>MOLECULE
*****
 37 39 0 0 0
SMALL
GASTEIGER

@<TRIPOS>ATOM
      1 O           1.1407    0.8391   -0.7567 O.2     1  UNL11      -0.2751
      2 C           0.3532    0.5119    0.1770 C.2     1  UNL11       0.2232
      3 C          -0.9848    1.1369    0.1807 C.3     1  UNL11       0.0728
      4 C          -1.9782    0.0558    0.0829 C.2     1  UNL11       0.1237
      5 N          -1.7021   -1.1778    0.5948 N.2     1  UNL11      -0.0071
      6 N          -2.5072   -2.2110    0.4956 N.am    1  UNL11      -0.0356
      7 C          -3.7068   -2.1242   -0.1421 C.2     1  UNL11       0.4383
      8 O          -4.4610   -3.1484   -0.2277 O.2     1  UNL11      -0.2116
      9 C          -4.0689   -0.9171   -0.6900 C.ar    1  UNL11       0.1004
     10 C          -5.2879   -0.8262   -1.3669 C.ar    1  UNL11      -0.0441
     11 C          -5.6164    0.3923   -1.9350 C.ar    1  UNL11      -0.0608
     12 C          -4.7486    1.4575   -1.8128 C.ar    1  UNL11      -0.0611
     13 C          -3.5514    1.3273   -1.1326 C.ar    1  UNL11      -0.0518
     14 C          -3.1975    0.1448   -0.5660 C.ar    1  UNL11       0.0194
     15 N           0.8203   -0.4243    1.1581 N.am    1  UNL11      -0.2852
     16 C          -0.0812   -0.7886    2.1850 C.ar    1  UNL11       0.0339
     17 C          -0.4353   -2.1096    2.3188 C.ar    1  UNL11      -0.0405
     18 C          -1.3767   -2.5328    3.2790 C.ar    1  UNL11      -0.0595
     19 C          -1.9548   -1.5790    4.1111 C.ar    1  UNL11      -0.0500
     20 C          -1.6045   -0.2469    3.9892 C.ar    1  UNL11       0.0566
     21 C          -2.2442    0.7073    4.9124 C.3     1  UNL11       0.4175
     22 F          -3.1254    0.0723    5.7810 F       1  UNL11      -0.1659
     23 F          -1.2421    1.3145    5.6944 F       1  UNL11      -0.1659
     24 F          -2.9023    1.7083    4.2342 F       1  UNL11      -0.1659
     25 C          -0.6876    0.1240    3.0419 C.ar    1  UNL11      -0.0288
     26 H          -1.0759    1.8063   -0.6570 H       1  UNL11       0.0425
     27 H          -1.0423    1.6644    1.1712 H       1  UNL11       0.0425
     28 H          -2.2201   -3.1303    0.9012 H       1  UNL11       0.4829
     29 H          -5.9621   -1.6559   -1.4607 H       1  UNL11       0.0627
     30 H          -6.5481    0.5224   -2.4919 H       1  UNL11       0.0618
     31 H          -5.0597    2.3867   -2.2770 H       1  UNL11       0.0618
     32 H          -2.8718    2.1597   -1.0360 H       1  UNL11       0.0624
     33 H           1.8128   -0.8092    1.0623 H       1  UNL11       0.1548
     34 H          -0.0036   -2.9169    1.7344 H       1  UNL11       0.0636
     35 H          -1.6320   -3.5742    3.3478 H       1  UNL11       0.0618
     36 H          -2.6778   -1.9268    4.8379 H       1  UNL11       0.0623
     37 H          -0.4209    1.1708    2.9516 H       1  UNL11       0.0642
@<TRIPOS>BOND
     1     1     2    2
     2     2     3    1
     3     2    15   am
     4     3     4    1
     5     3    26    1
     6     3    27    1
     7     4     5    2
     8     5     6    1
     9     6     7   am
    10     6    28    1
    11     7     8    2
    12     7     9    1
    13     9    10   ar
    14    10    11   ar
    15    10    29    1
    16    11    12   ar
    17    11    30    1
    18    12    13   ar
    19    12    31    1
    20    13    14   ar
    21    13    32    1
    22    14     4    1
    23    14     9   ar
    24    15    16    1
    25    15    33    1
    26    16    17   ar
    27    17    18   ar
    28    17    34    1
    29    18    19   ar
    30    18    35    1
    31    19    20   ar
    32    19    36    1
    33    20    21    1
    34    20    25   ar
    35    21    22    1
    36    21    23    1
    37    21    24    1
    38    25    16   ar
    39    25    37    1
@<TRIPOS>MOLECULE
*****
 37 39 0 0 0
SMALL
GASTEIGER

@<TRIPOS>ATOM
      1 O           0.9102    0.3468   -0.9462 O.2     1  UNL11      -0.2751
      2 C           0.3532    0.5119    0.1770 C.2     1  UNL11       0.2232
      3 C          -0.9848    1.1369    0.1807 C.3     1  UNL11       0.0728
      4 C          -1.9782    0.0558    0.0829 C.2     1  UNL11       0.1237
      5 N          -2.0444   -0.9044    1.0492 N.2     1  UNL11      -0.0071
      6 N          -2.8586   -1.9343    1.0065 N.am    1  UNL11      -0.0356
      7 C          -3.7178   -2.1239   -0.0323 C.2     1  UNL11       0.4383
      8 O          -4.4893   -3.1387   -0.0468 O.2     1  UNL11      -0.2116
      9 C          -3.7203   -1.2045   -1.0536 C.ar    1  UNL11       0.1004
     10 C          -4.5824   -1.4050   -2.1347 C.ar    1  UNL11      -0.0441
     11 C          -4.5452   -0.4808   -3.1643 C.ar    1  UNL11      -0.0608
     12 C          -3.6783    0.5895   -3.0886 C.ar    1  UNL11      -0.0611
     13 C          -2.8417    0.7536   -1.9995 C.ar    1  UNL11      -0.0518
     14 C          -2.8512   -0.1365   -0.9738 C.ar    1  UNL11       0.0194
     15 N           1.0626    0.0933    1.3512 N.am    1  UNL11      -0.2852
     16 C           0.4157    0.2727    2.5959 C.ar    1  UNL11       0.0339
     17 C          -0.3699   -0.7421    3.0872 C.ar    1  UNL11      -0.0405
     18 C          -1.0934   -0.6058    4.2895 C.ar    1  UNL11      -0.0595
     19 C          -0.9998    0.5920    4.9916 C.ar    1  UNL11      -0.0500
     20 C          -0.2099    1.6197    4.5099 C.ar    1  UNL11       0.0566
     21 C          -0.1449    2.8547    5.3114 C.3     1  UNL11       0.4175
     22 F          -0.9231    2.7649    6.4605 F       1  UNL11      -0.1659
     23 F           1.1889    3.0557    5.7174 F       1  UNL11      -0.1659
     24 F          -0.5246    3.9570    4.5794 F       1  UNL11      -0.1659
     25 C           0.4753    1.4486    3.3364 C.ar    1  UNL11      -0.0288
     26 H          -1.0759    1.8063   -0.6570 H       1  UNL11       0.0425
     27 H          -1.0423    1.6644    1.1712 H       1  UNL11       0.0425
     28 H          -2.8420   -2.6383    1.7785 H       1  UNL11       0.4829
     29 H          -5.2565   -2.2381   -2.1919 H       1  UNL11       0.0627
     30 H          -5.1830   -0.5915   -4.0453 H       1  UNL11       0.0618
     31 H          -3.6943    1.2810   -3.9235 H       1  UNL11       0.0618
     32 H          -2.1634    1.5905   -1.9388 H       1  UNL11       0.0624
     33 H           2.0316   -0.3418    1.2323 H       1  UNL11       0.1548
     34 H          -0.4664   -1.7174    2.6192 H       1  UNL11       0.0636
     35 H          -1.7020   -1.4203    4.6370 H       1  UNL11       0.0618
     36 H          -1.5673    0.6750    5.9097 H       1  UNL11       0.0623
     37 H           1.0900    2.2604    2.9649 H       1  UNL11       0.0642
@<TRIPOS>BOND
     1     1     2    2
     2     2     3    1
     3     2    15   am
     4     3     4    1
     5     3    26    1
     6     3    27    1
     7     4     5    2
     8     5     6    1
     9     6     7   am
    10     6    28    1
    11     7     8    2
    12     7     9    1
    13     9    10   ar
    14    10    11   ar
    15    10    29    1
    16    11    12   ar
    17    11    30    1
    18    12    13   ar
    19    12    31    1
    20    13    14   ar
    21    13    32    1
    22    14     4    1
    23    14     9   ar
    24    15    16    1
    25    15    33    1
    26    16    17   ar
    27    17    18   ar
    28    17    34    1
    29    18    19   ar
    30    18    35    1
    31    19    20   ar
    32    19    36    1
    33    20    21    1
    34    20    25   ar
    35    21    22    1
    36    21    23    1
    37    21    24    1
    38    25    16   ar
    39    25    37    1
@<TRIPOS>MOLECULE
*****
 37 39 0 0 0
SMALL
GASTEIGER

@<TRIPOS>ATOM
      1 O           1.1407    0.8391   -0.7567 O.2     1  UNL11      -0.2751
      2 C           0.3532    0.5119    0.1770 C.2     1  UNL11       0.2232
      3 C          -0.9848    1.1369    0.1807 C.3     1  UNL11       0.0728
      4 C          -1.9782    0.0558    0.0829 C.2     1  UNL11       0.1237
      5 N          -2.9039   -0.1164    1.0695 N.2     1  UNL11      -0.0071
      6 N          -3.7841   -1.0913    1.0887 N.am    1  UNL11      -0.0356
      7 C          -3.8379   -2.0255    0.0999 C.2     1  UNL11       0.4383
      8 O          -4.6994   -2.9638    0.1529 O.2     1  UNL11      -0.2116
      9 C          -2.9413   -1.9309   -0.9372 C.ar    1  UNL11       0.1004
     10 C          -2.9747   -2.8996   -1.9435 C.ar    1  UNL11      -0.0441
     11 C          -2.0425   -2.7989   -2.9615 C.ar    1  UNL11      -0.0608
     12 C          -1.1317   -1.7629   -2.9517 C.ar    1  UNL11      -0.0611
     13 C          -1.1328   -0.8223   -1.9378 C.ar    1  UNL11      -0.0518
     14 C          -2.0320   -0.8939   -0.9226 C.ar    1  UNL11       0.0194
     15 N           0.8203   -0.4243    1.1581 N.am    1  UNL11      -0.2852
     16 C          -0.0812   -0.7886    2.1850 C.ar    1  UNL11       0.0339
     17 C           0.2628   -0.5332    3.4907 C.ar    1  UNL11      -0.0405
     18 C          -0.5593   -0.9270    4.5662 C.ar    1  UNL11      -0.0595
     19 C          -1.7510   -1.5889    4.2865 C.ar    1  UNL11      -0.0500
     20 C          -2.1104   -1.8490    2.9768 C.ar    1  UNL11       0.0566
     21 C          -3.3924   -2.5403    2.7524 C.3     1  UNL11       0.4175
     22 F          -4.0428   -2.8214    3.9492 F       1  UNL11      -0.1659
     23 F          -4.2324   -1.6942    2.0022 F       1  UNL11      -0.1659
     24 F          -3.2253   -3.7013    2.0318 F       1  UNL11      -0.1659
     25 C          -1.2828   -1.4522    1.9603 C.ar    1  UNL11      -0.0288
     26 H          -1.0759    1.8063   -0.6570 H       1  UNL11       0.0425
     27 H          -1.0423    1.6644    1.1712 H       1  UNL11       0.0425
     28 H          -4.4537   -1.1671    1.8872 H       1  UNL11       0.4829
     29 H          -3.6842   -3.7047   -1.9498 H       1  UNL11       0.0627
     30 H          -2.0064   -3.5354   -3.7686 H       1  UNL11       0.0618
     31 H          -0.4269   -1.7348   -3.7752 H       1  UNL11       0.0618
     32 H          -0.4211   -0.0114   -1.9291 H       1  UNL11       0.0624
     33 H           1.8128   -0.8092    1.0623 H       1  UNL11       0.1548
     34 H           1.1550    0.0093    3.7895 H       1  UNL11       0.0636
     35 H          -0.2520   -0.7146    5.5736 H       1  UNL11       0.0618
     36 H          -2.3638   -1.8851    5.1283 H       1  UNL11       0.0623
     37 H          -1.5712   -1.6625    0.9368 H       1  UNL11       0.0642
@<TRIPOS>BOND
     1     1     2    2
     2     2     3    1
     3     2    15   am
     4     3     4    1
     5     3    26    1
     6     3    27    1
     7     4     5    2
     8     5     6    1
     9     6     7   am
    10     6    28    1
    11     7     8    2
    12     7     9    1
    13     9    10   ar
    14    10    11   ar
    15    10    29    1
    16    11    12   ar
    17    11    30    1
    18    12    13   ar
    19    12    31    1
    20    13    14   ar
    21    13    32    1
    22    14     4    1
    23    14     9   ar
    24    15    16    1
    25    15    33    1
    26    16    17   ar
    27    17    18   ar
    28    17    34    1
    29    18    19   ar
    30    18    35    1
    31    19    20   ar
    32    19    36    1
    33    20    21    1
    34    20    25   ar
    35    21    22    1
    36    21    23    1
    37    21    24    1
    38    25    16   ar
    39    25    37    1
@<TRIPOS>MOLECULE
*****
 37 39 0 0 0
SMALL
GASTEIGER

@<TRIPOS>ATOM
      1 O           0.6070   -0.3144    1.0999 O.2     1  UNL11      -0.2751
      2 C           0.3532    0.5119    0.1770 C.2     1  UNL11       0.2232
      3 C          -0.9848    1.1369    0.1807 C.3     1  UNL11       0.0728
      4 C          -1.9782    0.0558    0.0829 C.2     1  UNL11       0.1237
      5 N          -2.4791   -0.5198    1.2133 N.2     1  UNL11      -0.0071
      6 N          -3.3208   -1.5283    1.2129 N.am    1  UNL11      -0.0356
      7 C          -3.7659   -2.0876    0.0542 C.2     1  UNL11       0.4383
      8 O          -4.5765   -3.0709    0.0891 O.2     1  UNL11      -0.2116
      9 C          -3.3131   -1.5712   -1.1360 C.ar    1  UNL11       0.1004
     10 C          -3.7468   -2.1552   -2.3290 C.ar    1  UNL11      -0.0441
     11 C          -3.2537   -1.6359   -3.5133 C.ar    1  UNL11      -0.0608
     12 C          -2.3710   -0.5765   -3.4779 C.ar    1  UNL11      -0.0611
     13 C          -1.9674   -0.0248   -2.2756 C.ar    1  UNL11      -0.0518
     14 C          -2.4300   -0.5126   -1.0955 C.ar    1  UNL11       0.0194
     15 N           1.3716    0.7675   -0.8001 N.am    1  UNL11      -0.2852
     16 C           1.0731    1.7062   -1.8149 C.ar    1  UNL11       0.0339
     17 C           1.0988    1.2959   -3.1261 C.ar    1  UNL11      -0.0405
     18 C           0.8740    2.1933   -4.1899 C.ar    1  UNL11      -0.0595
     19 C           0.6167    3.5281   -3.8926 C.ar    1  UNL11      -0.0500
     20 C           0.5845    3.9533   -2.5772 C.ar    1  UNL11       0.0566
     21 C           0.2918    5.3770   -2.3341 C.3     1  UNL11       0.4175
     22 F           0.0908    6.0720   -3.5218 F       1  UNL11      -0.1659
     23 F          -0.8967    5.4682   -1.5833 F       1  UNL11      -0.1659
     24 F           1.2889    5.9842   -1.6047 F       1  UNL11      -0.1659
     25 C           0.8107    3.0505   -1.5724 C.ar    1  UNL11      -0.0288
     26 H          -1.0759    1.8063   -0.6570 H       1  UNL11       0.0425
     27 H          -1.0423    1.6644    1.1712 H       1  UNL11       0.0425
     28 H          -3.6502   -1.9266    2.1210 H       1  UNL11       0.4829
     29 H          -4.4339   -2.9792   -2.3548 H       1  UNL11       0.0627
     30 H          -3.5419   -2.0602   -4.4788 H       1  UNL11       0.0618
     31 H          -2.0196   -0.2114   -4.4364 H       1  UNL11       0.0618
     32 H          -1.2772    0.8040   -2.2464 H       1  UNL11       0.0624
     33 H           2.3037    0.2522   -0.7105 H       1  UNL11       0.1548
     34 H           1.2556    0.2675   -3.4385 H       1  UNL11       0.0636
     35 H           0.9091    1.8347   -5.2021 H       1  UNL11       0.0618
     36 H           0.4511    4.1993   -4.7257 H       1  UNL11       0.0623
     37 H           0.7862    3.3930   -0.5443 H       1  UNL11       0.0642
@<TRIPOS>BOND
     1     1     2    2
     2     2     3    1
     3     2    15   am
     4     3     4    1
     5     3    26    1
     6     3    27    1
     7     4     5    2
     8     5     6    1
     9     6     7   am
    10     6    28    1
    11     7     8    2
    12     7     9    1
    13     9    10   ar
    14    10    11   ar
    15    10    29    1
    16    11    12   ar
    17    11    30    1
    18    12    13   ar
    19    12    31    1
    20    13    14   ar
    21    13    32    1
    22    14     4    1
    23    14     9   ar
    24    15    16    1
    25    15    33    1
    26    16    17   ar
    27    17    18   ar
    28    17    34    1
    29    18    19   ar
    30    18    35    1
    31    19    20   ar
    32    19    36    1
    33    20    21    1
    34    20    25   ar
    35    21    22    1
    36    21    23    1
    37    21    24    1
    38    25    16   ar
    39    25    37    1
@<TRIPOS>MOLECULE
*****
 37 39 0 0 0
SMALL
GASTEIGER

@<TRIPOS>ATOM
      1 O           0.9102    0.3468   -0.9462 O.2     1  UNL11      -0.2751
      2 C           0.3532    0.5119    0.1770 C.2     1  UNL11       0.2232
      3 C          -0.9848    1.1369    0.1807 C.3     1  UNL11       0.0728
      4 C          -1.9782    0.0558    0.0829 C.2     1  UNL11       0.1237
      5 N          -2.4141   -0.3667   -1.1383 N.2     1  UNL11      -0.0071
      6 N          -3.3411   -1.2814   -1.3112 N.am    1  UNL11      -0.0356
      7 C          -3.9505   -1.8898   -0.2568 C.2     1  UNL11       0.4383
      8 O          -4.8523   -2.7679   -0.4593 O.2     1  UNL11      -0.2116
      9 C          -3.5739   -1.5261    1.0137 C.ar    1  UNL11       0.1004
     10 C          -4.2116   -2.1289    2.1010 C.ar    1  UNL11      -0.0441
     11 C          -3.8352   -1.7243    3.3699 C.ar    1  UNL11      -0.0608
     12 C          -2.8586   -0.7613    3.5167 C.ar    1  UNL11      -0.0611
     13 C          -2.2495   -0.1899    2.4142 C.ar    1  UNL11      -0.0518
     14 C          -2.5976   -0.5621    1.1554 C.ar    1  UNL11       0.0194
     15 N           1.0626    0.0933    1.3512 N.am    1  UNL11      -0.2852
     16 C           0.4157    0.2727    2.5959 C.ar    1  UNL11       0.0339
     17 C          -0.3699   -0.7421    3.0872 C.ar    1  UNL11      -0.0405
     18 C          -1.0934   -0.6058    4.2895 C.ar    1  UNL11      -0.0595
     19 C          -0.9998    0.5920    4.9916 C.ar    1  UNL11      -0.0500
     20 C          -0.2099    1.6197    4.5099 C.ar    1  UNL11       0.0566
     21 C          -0.1449    2.8547    5.3114 C.3     1  UNL11       0.4175
     22 F          -0.9231    2.7649    6.4605 F       1  UNL11      -0.1659
     23 F           1.1889    3.0557    5.7174 F       1  UNL11      -0.1659
     24 F          -0.5246    3.9570    4.5794 F       1  UNL11      -0.1659
     25 C           0.4753    1.4486    3.3364 C.ar    1  UNL11      -0.0288
     26 H          -1.0759    1.8063   -0.6570 H       1  UNL11       0.0425
     27 H          -1.0423    1.6644    1.1712 H       1  UNL11       0.0425
     28 H          -3.6341   -1.5434   -2.2793 H       1  UNL11       0.4829
     29 H          -4.9710   -2.8783    1.9851 H       1  UNL11       0.0627
     30 H          -4.3089   -2.1461    4.2604 H       1  UNL11       0.0618
     31 H          -2.6045   -0.4855    4.5340 H       1  UNL11       0.0618
     32 H          -1.4853    0.5633    2.5276 H       1  UNL11       0.0624
     33 H           2.0316   -0.3418    1.2323 H       1  UNL11       0.1548
     34 H          -0.4664   -1.7174    2.6192 H       1  UNL11       0.0636
     35 H          -1.7020   -1.4203    4.6370 H       1  UNL11       0.0618
     36 H          -1.5673    0.6750    5.9097 H       1  UNL11       0.0623
     37 H           1.0900    2.2604    2.9649 H       1  UNL11       0.0642
@<TRIPOS>BOND
     1     1     2    2
     2     2     3    1
     3     2    15   am
     4     3     4    1
     5     3    26    1
     6     3    27    1
     7     4     5    2
     8     5     6    1
     9     6     7   am
    10     6    28    1
    11     7     8    2
    12     7     9    1
    13     9    10   ar
    14    10    11   ar
    15    10    29    1
    16    11    12   ar
    17    11    30    1
    18    12    13   ar
    19    12    31    1
    20    13    14   ar
    21    13    32    1
    22    14     4    1
    23    14     9   ar
    24    15    16    1
    25    15    33    1
    26    16    17   ar
    27    17    18   ar
    28    17    34    1
    29    18    19   ar
    30    18    35    1
    31    19    20   ar
    32    19    36    1
    33    20    21    1
    34    20    25   ar
    35    21    22    1
    36    21    23    1
    37    21    24    1
    38    25    16   ar
    39    25    37    1
@<TRIPOS>MOLECULE
*****
 37 39 0 0 0
SMALL
GASTEIGER

@<TRIPOS>ATOM
      1 O           0.8482    0.2008    1.2982 O.2     1  UNL11      -0.2751
      2 C           0.3532    0.5119    0.1770 C.2     1  UNL11       0.2232
      3 C          -0.9848    1.1369    0.1807 C.3     1  UNL11       0.0728
      4 C          -1.9782    0.0558    0.0829 C.2     1  UNL11       0.1237
      5 N          -1.7021   -1.1778    0.5948 N.2     1  UNL11      -0.0071
      6 N          -2.5072   -2.2110    0.4956 N.am    1  UNL11      -0.0356
      7 C          -3.7068   -2.1242   -0.1421 C.2     1  UNL11       0.4383
      8 O          -4.4610   -3.1484   -0.2277 O.2     1  UNL11      -0.2116
      9 C          -4.0689   -0.9171   -0.6900 C.ar    1  UNL11       0.1004
     10 C          -5.2879   -0.8262   -1.3669 C.ar    1  UNL11      -0.0441
     11 C          -5.6164    0.3923   -1.9350 C.ar    1  UNL11      -0.0608
     12 C          -4.7486    1.4575   -1.8128 C.ar    1  UNL11      -0.0611
     13 C          -3.5514    1.3273   -1.1326 C.ar    1  UNL11      -0.0518
     14 C          -3.1975    0.1448   -0.5660 C.ar    1  UNL11       0.0194
     15 N           1.1181    0.2259   -1.0021 N.am    1  UNL11      -0.2852
     16 C           0.5532    0.5956   -2.2448 C.ar    1  UNL11       0.0339
     17 C           0.3154   -0.3809   -3.1819 C.ar    1  UNL11      -0.0405
     18 C          -0.1861   -0.0744   -4.4634 C.ar    1  UNL11      -0.0595
     19 C          -0.4471    1.2561   -4.7763 C.ar    1  UNL11      -0.0500
     20 C          -0.2155    2.2480   -3.8410 C.ar    1  UNL11       0.0566
     21 C          -0.5278    3.6336   -4.2340 C.3     1  UNL11       0.4175
     22 F          -1.0218    3.7022   -5.5323 F       1  UNL11      -0.1659
     23 F          -1.5272    4.1289   -3.3737 F       1  UNL11      -0.1659
     24 F           0.5686    4.4569   -4.1110 F       1  UNL11      -0.1659
     25 C           0.2748    1.9092   -2.6079 C.ar    1  UNL11      -0.0288
     26 H          -1.0759    1.8063   -0.6570 H       1  UNL11       0.0425
     27 H          -1.0423    1.6644    1.1712 H       1  UNL11       0.0425
     28 H          -2.2201   -3.1303    0.9012 H       1  UNL11       0.4829
     29 H          -5.9621   -1.6559   -1.4607 H       1  UNL11       0.0627
     30 H          -6.5481    0.5224   -2.4919 H       1  UNL11       0.0618
     31 H          -5.0597    2.3867   -2.2770 H       1  UNL11       0.0618
     32 H          -2.8718    2.1597   -1.0360 H       1  UNL11       0.0624
     33 H           2.0747   -0.2370   -0.8885 H       1  UNL11       0.1548
     34 H           0.4580   -1.4427   -3.0033 H       1  UNL11       0.0636
     35 H          -0.3524   -0.8660   -5.1707 H       1  UNL11       0.0618
     36 H          -0.8277    1.4677   -5.7673 H       1  UNL11       0.0623
     37 H           0.4557    2.6934   -1.8818 H       1  UNL11       0.0642
@<TRIPOS>BOND
     1     1     2    2
     2     2     3    1
     3     2    15   am
     4     3     4    1
     5     3    26    1
     6     3    27    1
     7     4     5    2
     8     5     6    1
     9     6     7   am
    10     6    28    1
    11     7     8    2
    12     7     9    1
    13     9    10   ar
    14    10    11   ar
    15    10    29    1
    16    11    12   ar
    17    11    30    1
    18    12    13   ar
    19    12    31    1
    20    13    14   ar
    21    13    32    1
    22    14     4    1
    23    14     9   ar
    24    15    16    1
    25    15    33    1
    26    16    17   ar
    27    17    18   ar
    28    17    34    1
    29    18    19   ar
    30    18    35    1
    31    19    20   ar
    32    19    36    1
    33    20    21    1
    34    20    25   ar
    35    21    22    1
    36    21    23    1
    37    21    24    1
    38    25    16   ar
    39    25    37    1
@<TRIPOS>MOLECULE
*****
 37 39 0 0 0
SMALL
GASTEIGER

@<TRIPOS>ATOM
      1 O           1.0870    0.7126    1.1871 O.2     1  UNL11      -0.2751
      2 C           0.3532    0.5119    0.1770 C.2     1  UNL11       0.2232
      3 C          -0.9848    1.1369    0.1807 C.3     1  UNL11       0.0728
      4 C          -1.9782    0.0558    0.0829 C.2     1  UNL11       0.1237
      5 N          -2.0444   -0.9044    1.0492 N.2     1  UNL11      -0.0071
      6 N          -2.8586   -1.9343    1.0065 N.am    1  UNL11      -0.0356
      7 C          -3.7178   -2.1239   -0.0323 C.2     1  UNL11       0.4383
      8 O          -4.4893   -3.1387   -0.0468 O.2     1  UNL11      -0.2116
      9 C          -3.7203   -1.2045   -1.0536 C.ar    1  UNL11       0.1004
     10 C          -4.5824   -1.4050   -2.1347 C.ar    1  UNL11      -0.0441
     11 C          -4.5452   -0.4808   -3.1643 C.ar    1  UNL11      -0.0608
     12 C          -3.6783    0.5895   -3.0886 C.ar    1  UNL11      -0.0611
     13 C          -2.8417    0.7536   -1.9995 C.ar    1  UNL11      -0.0518
     14 C          -2.8512   -0.1365   -0.9738 C.ar    1  UNL11       0.0194
     15 N           0.8683   -0.3095   -0.8800 N.am    1  UNL11      -0.2852
     16 C           2.1693   -0.8381   -0.7126 C.ar    1  UNL11       0.0339
     17 C           2.3143   -2.0643   -0.1095 C.ar    1  UNL11      -0.0405
     18 C           3.5840   -2.6210    0.1460 C.ar    1  UNL11      -0.0595
     19 C           4.7148   -1.9023   -0.2298 C.ar    1  UNL11      -0.0500
     20 C           4.5827   -0.6689   -0.8407 C.ar    1  UNL11       0.0566
     21 C           5.8212    0.0308   -1.2256 C.3     1  UNL11       0.4175
     22 F           6.9536   -0.7046   -0.8921 F       1  UNL11      -0.1659
     23 F           5.8234    0.2015   -2.6239 F       1  UNL11      -0.1659
     24 F           5.8969    1.2820   -0.6565 F       1  UNL11      -0.1659
     25 C           3.3312   -0.1615   -1.0690 C.ar    1  UNL11      -0.0288
     26 H          -1.0759    1.8063   -0.6570 H       1  UNL11       0.0425
     27 H          -1.0423    1.6644    1.1712 H       1  UNL11       0.0425
     28 H          -2.8420   -2.6383    1.7785 H       1  UNL11       0.4829
     29 H          -5.2565   -2.2381   -2.1919 H       1  UNL11       0.0627
     30 H          -5.1830   -0.5915   -4.0453 H       1  UNL11       0.0618
     31 H          -3.6943    1.2810   -3.9235 H       1  UNL11       0.0618
     32 H          -2.1634    1.5905   -1.9388 H       1  UNL11       0.0624
     33 H           0.2477   -0.4929   -1.7306 H       1  UNL11       0.1548
     34 H           1.4837   -2.7018    0.1795 H       1  UNL11       0.0636
     35 H           3.6555   -3.5798    0.6258 H       1  UNL11       0.0618
     36 H           5.6788   -2.3479   -0.0199 H       1  UNL11       0.0623
     37 H           3.2370    0.8073   -1.5461 H       1  UNL11       0.0642
@<TRIPOS>BOND
     1     1     2    2
     2     2     3    1
     3     2    15   am
     4     3     4    1
     5     3    26    1
     6     3    27    1
     7     4     5    2
     8     5     6    1
     9     6     7   am
    10     6    28    1
    11     7     8    2
    12     7     9    1
    13     9    10   ar
    14    10    11   ar
    15    10    29    1
    16    11    12   ar
    17    11    30    1
    18    12    13   ar
    19    12    31    1
    20    13    14   ar
    21    13    32    1
    22    14     4    1
    23    14     9   ar
    24    15    16    1
    25    15    33    1
    26    16    17   ar
    27    17    18   ar
    28    17    34    1
    29    18    19   ar
    30    18    35    1
    31    19    20   ar
    32    19    36    1
    33    20    21    1
    34    20    25   ar
    35    21    22    1
    36    21    23    1
    37    21    24    1
    38    25    16   ar
    39    25    37    1
@<TRIPOS>MOLECULE
*****
 37 39 0 0 0
SMALL
GASTEIGER

@<TRIPOS>ATOM
      1 O           0.8482    0.2008    1.2982 O.2     1  UNL11      -0.2751
      2 C           0.3532    0.5119    0.1770 C.2     1  UNL11       0.2232
      3 C          -0.9848    1.1369    0.1807 C.3     1  UNL11       0.0728
      4 C          -1.9782    0.0558    0.0829 C.2     1  UNL11       0.1237
      5 N          -1.6700   -1.1021   -0.5685 N.2     1  UNL11      -0.0071
      6 N          -2.5172   -2.0889   -0.7529 N.am    1  UNL11      -0.0356
      7 C          -3.7981   -2.0263   -0.2960 C.2     1  UNL11       0.4383
      8 O          -4.5974   -2.9985   -0.4989 O.2     1  UNL11      -0.2116
      9 C          -4.1979   -0.8948    0.3733 C.ar    1  UNL11       0.1004
     10 C          -5.5178   -0.8132    0.8245 C.ar    1  UNL11      -0.0441
     11 C          -5.9041    0.3486    1.4699 C.ar    1  UNL11      -0.0608
     12 C          -4.9897    1.3661    1.6472 C.ar    1  UNL11      -0.0611
     13 C          -3.6910    1.2457    1.1873 C.ar    1  UNL11      -0.0518
     14 C          -3.2804    0.1203    0.5474 C.ar    1  UNL11       0.0194
     15 N           1.1181    0.2259   -1.0021 N.am    1  UNL11      -0.2852
     16 C           2.3793   -0.3879   -0.8217 C.ar    1  UNL11       0.0339
     17 C           2.4545   -1.7600   -0.8169 C.ar    1  UNL11      -0.0405
     18 C           3.6682   -2.4367   -0.5791 C.ar    1  UNL11      -0.0595
     19 C           4.8160   -1.6850   -0.3471 C.ar    1  UNL11      -0.0500
     20 C           4.7546   -0.3036   -0.3527 C.ar    1  UNL11       0.0566
     21 C           6.0106    0.4297   -0.1146 C.3     1  UNL11       0.4175
     22 F           7.0825   -0.4344    0.0822 F       1  UNL11      -0.1659
     23 F           6.2976    1.2084   -1.2528 F       1  UNL11      -0.1659
     24 F           5.9039    1.2875    0.9568 F       1  UNL11      -0.1659
     25 C           3.5555    0.3160   -0.5853 C.ar    1  UNL11      -0.0288
     26 H          -1.0759    1.8063   -0.6570 H       1  UNL11       0.0425
     27 H          -1.0423    1.6644    1.1712 H       1  UNL11       0.0425
     28 H          -2.2121   -2.9407   -1.2755 H       1  UNL11       0.4829
     29 H          -6.2278   -1.6060    0.6860 H       1  UNL11       0.0627
     30 H          -6.9275    0.4799    1.8310 H       1  UNL11       0.0618
     31 H          -5.3490    2.2511    2.1604 H       1  UNL11       0.0618
     32 H          -2.9748    2.0406    1.3255 H       1  UNL11       0.0624
     33 H           0.6993    0.4752   -1.9534 H       1  UNL11       0.1548
     34 H           1.6141   -2.4157   -1.0252 H       1  UNL11       0.0636
     35 H           3.6843   -3.5110   -0.5770 H       1  UNL11       0.0618
     36 H           5.7352   -2.2263   -0.1629 H       1  UNL11       0.0623
     37 H           3.5161    1.3992   -0.5853 H       1  UNL11       0.0642
@<TRIPOS>BOND
     1     1     2    2
     2     2     3    1
     3     2    15   am
     4     3     4    1
     5     3    26    1
     6     3    27    1
     7     4     5    2
     8     5     6    1
     9     6     7   am
    10     6    28    1
    11     7     8    2
    12     7     9    1
    13     9    10   ar
    14    10    11   ar
    15    10    29    1
    16    11    12   ar
    17    11    30    1
    18    12    13   ar
    19    12    31    1
    20    13    14   ar
    21    13    32    1
    22    14     4    1
    23    14     9   ar
    24    15    16    1
    25    15    33    1
    26    16    17   ar
    27    17    18   ar
    28    17    34    1
    29    18    19   ar
    30    18    35    1
    31    19    20   ar
    32    19    36    1
    33    20    21    1
    34    20    25   ar
    35    21    22    1
    36    21    23    1
    37    21    24    1
    38    25    16   ar
    39    25    37    1
@<TRIPOS>MOLECULE
*****
 37 39 0 0 0
SMALL
GASTEIGER

@<TRIPOS>ATOM
      1 O           0.8482    0.2008    1.2982 O.2     1  UNL11      -0.2751
      2 C           0.3532    0.5119    0.1770 C.2     1  UNL11       0.2232
      3 C          -0.9848    1.1369    0.1807 C.3     1  UNL11       0.0728
      4 C          -1.9782    0.0558    0.0829 C.2     1  UNL11       0.1237
      5 N          -1.7021   -1.1778    0.5948 N.2     1  UNL11      -0.0071
      6 N          -2.5072   -2.2110    0.4956 N.am    1  UNL11      -0.0356
      7 C          -3.7068   -2.1242   -0.1421 C.2     1  UNL11       0.4383
      8 O          -4.4610   -3.1484   -0.2277 O.2     1  UNL11      -0.2116
      9 C          -4.0689   -0.9171   -0.6900 C.ar    1  UNL11       0.1004
     10 C          -5.2879   -0.8262   -1.3669 C.ar    1  UNL11      -0.0441
     11 C          -5.6164    0.3923   -1.9350 C.ar    1  UNL11      -0.0608
     12 C          -4.7486    1.4575   -1.8128 C.ar    1  UNL11      -0.0611
     13 C          -3.5514    1.3273   -1.1326 C.ar    1  UNL11      -0.0518
     14 C          -3.1975    0.1448   -0.5660 C.ar    1  UNL11       0.0194
     15 N           1.1181    0.2259   -1.0021 N.am    1  UNL11      -0.2852
     16 C           0.5532    0.5956   -2.2448 C.ar    1  UNL11       0.0339
     17 C           0.8223    1.8448   -2.7501 C.ar    1  UNL11      -0.0405
     18 C           0.2418    2.3014   -3.9510 C.ar    1  UNL11      -0.0595
     19 C          -0.6235    1.4546   -4.6370 C.ar    1  UNL11      -0.0500
     20 C          -0.8999    0.1937   -4.1412 C.ar    1  UNL11       0.0566
     21 C          -1.8131   -0.6559   -4.9261 C.3     1  UNL11       0.4175
     22 F          -2.2548   -0.0119   -6.0769 F       1  UNL11      -0.1659
     23 F          -1.1152   -1.8114   -5.3285 F       1  UNL11      -0.1659
     24 F          -2.8949   -1.0655   -4.1798 F       1  UNL11      -0.1659
     25 C          -0.3176   -0.2114   -2.9696 C.ar    1  UNL11      -0.0288
     26 H          -1.0759    1.8063   -0.6570 H       1  UNL11       0.0425
     27 H          -1.0423    1.6644    1.1712 H       1  UNL11       0.0425
     28 H          -2.2201   -3.1303    0.9012 H       1  UNL11       0.4829
     29 H          -5.9621   -1.6559   -1.4607 H       1  UNL11       0.0627
     30 H          -6.5481    0.5224   -2.4919 H       1  UNL11       0.0618
     31 H          -5.0597    2.3867   -2.2770 H       1  UNL11       0.0618
     32 H          -2.8718    2.1597   -1.0360 H       1  UNL11       0.0624
     33 H           2.0747   -0.2370   -0.8885 H       1  UNL11       0.1548
     34 H           1.5129    2.5489   -2.2951 H       1  UNL11       0.0636
     35 H           0.4723    3.2876   -4.3096 H       1  UNL11       0.0618
     36 H          -1.0603    1.8282   -5.5544 H       1  UNL11       0.0623
     37 H          -0.5419   -1.2004   -2.5869 H       1  UNL11       0.0642
@<TRIPOS>BOND
     1     1     2    2
     2     2     3    1
     3     2    15   am
     4     3     4    1
     5     3    26    1
     6     3    27    1
     7     4     5    2
     8     5     6    1
     9     6     7   am
    10     6    28    1
    11     7     8    2
    12     7     9    1
    13     9    10   ar
    14    10    11   ar
    15    10    29    1
    16    11    12   ar
    17    11    30    1
    18    12    13   ar
    19    12    31    1
    20    13    14   ar
    21    13    32    1
    22    14     4    1
    23    14     9   ar
    24    15    16    1
    25    15    33    1
    26    16    17   ar
    27    17    18   ar
    28    17    34    1
    29    18    19   ar
    30    18    35    1
    31    19    20   ar
    32    19    36    1
    33    20    21    1
    34    20    25   ar
    35    21    22    1
    36    21    23    1
    37    21    24    1
    38    25    16   ar
    39    25    37    1
@<TRIPOS>MOLECULE
*****
 37 39 0 0 0
SMALL
GASTEIGER

@<TRIPOS>ATOM
      1 O           1.0870    0.7126    1.1871 O.2     1  UNL11      -0.2751
      2 C           0.3532    0.5119    0.1770 C.2     1  UNL11       0.2232
      3 C          -0.9848    1.1369    0.1807 C.3     1  UNL11       0.0728
      4 C          -1.9782    0.0558    0.0829 C.2     1  UNL11       0.1237
      5 N          -2.0444   -0.9044    1.0492 N.2     1  UNL11      -0.0071
      6 N          -2.8586   -1.9343    1.0065 N.am    1  UNL11      -0.0356
      7 C          -3.7178   -2.1239   -0.0323 C.2     1  UNL11       0.4383
      8 O          -4.4893   -3.1387   -0.0468 O.2     1  UNL11      -0.2116
      9 C          -3.7203   -1.2045   -1.0536 C.ar    1  UNL11       0.1004
     10 C          -4.5824   -1.4050   -2.1347 C.ar    1  UNL11      -0.0441
     11 C          -4.5452   -0.4808   -3.1643 C.ar    1  UNL11      -0.0608
     12 C          -3.6783    0.5895   -3.0886 C.ar    1  UNL11      -0.0611
     13 C          -2.8417    0.7536   -1.9995 C.ar    1  UNL11      -0.0518
     14 C          -2.8512   -0.1365   -0.9738 C.ar    1  UNL11       0.0194
     15 N           0.8683   -0.3095   -0.8800 N.am    1  UNL11      -0.2852
     16 C           0.0379   -0.5089   -2.0072 C.ar    1  UNL11       0.0339
     17 C           0.1308    0.3664   -3.0625 C.ar    1  UNL11      -0.0405
     18 C          -0.7106    0.2639   -4.1889 C.ar    1  UNL11      -0.0595
     19 C          -1.6554   -0.7571   -4.2244 C.ar    1  UNL11      -0.0500
     20 C          -1.7569   -1.6466   -3.1706 C.ar    1  UNL11       0.0566
     21 C          -2.7690   -2.7121   -3.2807 C.3     1  UNL11       0.4175
     22 F          -3.4741   -2.6316   -4.4768 F       1  UNL11      -0.1659
     23 F          -2.1122   -3.9581   -3.2590 F       1  UNL11      -0.1659
     24 F          -3.6484   -2.6901   -2.2218 F       1  UNL11      -0.1659
     25 C          -0.9224   -1.5115   -2.0930 C.ar    1  UNL11      -0.0288
     26 H          -1.0759    1.8063   -0.6570 H       1  UNL11       0.0425
     27 H          -1.0423    1.6644    1.1712 H       1  UNL11       0.0425
     28 H          -2.8420   -2.6383    1.7785 H       1  UNL11       0.4829
     29 H          -5.2565   -2.2381   -2.1919 H       1  UNL11       0.0627
     30 H          -5.1830   -0.5915   -4.0453 H       1  UNL11       0.0618
     31 H          -3.6943    1.2810   -3.9235 H       1  UNL11       0.0618
     32 H          -2.1634    1.5905   -1.9388 H       1  UNL11       0.0624
     33 H           1.8502   -0.7184   -0.7744 H       1  UNL11       0.1548
     34 H           0.8642    1.1650   -3.1273 H       1  UNL11       0.0636
     35 H          -0.6112    0.9721   -4.9909 H       1  UNL11       0.0618
     36 H          -2.2930   -0.8135   -5.0975 H       1  UNL11       0.0623
     37 H          -1.0107   -2.2117   -1.2703 H       1  UNL11       0.0642
@<TRIPOS>BOND
     1     1     2    2
     2     2     3    1
     3     2    15   am
     4     3     4    1
     5     3    26    1
     6     3    27    1
     7     4     5    2
     8     5     6    1
     9     6     7   am
    10     6    28    1
    11     7     8    2
    12     7     9    1
    13     9    10   ar
    14    10    11   ar
    15    10    29    1
    16    11    12   ar
    17    11    30    1
    18    12    13   ar
    19    12    31    1
    20    13    14   ar
    21    13    32    1
    22    14     4    1
    23    14     9   ar
    24    15    16    1
    25    15    33    1
    26    16    17   ar
    27    17    18   ar
    28    17    34    1
    29    18    19   ar
    30    18    35    1
    31    19    20   ar
    32    19    36    1
    33    20    21    1
    34    20    25   ar
    35    21    22    1
    36    21    23    1
    37    21    24    1
    38    25    16   ar
    39    25    37    1
@<TRIPOS>MOLECULE
*****
 37 39 0 0 0
SMALL
GASTEIGER

@<TRIPOS>ATOM
      1 O           0.6070   -0.3144    1.0999 O.2     1  UNL11      -0.2751
      2 C           0.3532    0.5119    0.1770 C.2     1  UNL11       0.2232
      3 C          -0.9848    1.1369    0.1807 C.3     1  UNL11       0.0728
      4 C          -1.9782    0.0558    0.0829 C.2     1  UNL11       0.1237
      5 N          -3.3098    0.3487    0.0506 N.2     1  UNL11      -0.0071
      6 N          -4.2607   -0.5573    0.0255 N.am    1  UNL11      -0.0356
      7 C          -3.9794   -1.8893    0.0305 C.2     1  UNL11       0.4383
      8 O          -4.9263   -2.7427    0.0139 O.2     1  UNL11      -0.2116
      9 C          -2.6618   -2.2781    0.0624 C.ar    1  UNL11       0.1004
     10 C          -2.3657   -3.6433    0.0918 C.ar    1  UNL11      -0.0441
     11 C          -1.0322   -4.0089    0.1533 C.ar    1  UNL11      -0.0608
     12 C          -0.0582   -3.0325    0.1785 C.ar    1  UNL11      -0.0611
     13 C          -0.3926   -1.6909    0.1458 C.ar    1  UNL11      -0.0518
     14 C          -1.6915   -1.2983    0.0884 C.ar    1  UNL11       0.0194
     15 N           1.3716    0.7675   -0.8001 N.am    1  UNL11      -0.2852
     16 C           1.0731    1.7062   -1.8149 C.ar    1  UNL11       0.0339
     17 C          -0.1584    2.3159   -1.8128 C.ar    1  UNL11      -0.0405
     18 C          -0.5450    3.2128   -2.8294 C.ar    1  UNL11      -0.0595
     19 C           0.3538    3.4834   -3.8567 C.ar    1  UNL11      -0.0500
     20 C           1.5975    2.8792   -3.8687 C.ar    1  UNL11       0.0566
     21 C           2.5049    3.2224   -4.9781 C.3     1  UNL11       0.4175
     22 F           1.9253    4.1328   -5.8552 F       1  UNL11      -0.1659
     23 F           3.6593    3.8262   -4.4423 F       1  UNL11      -0.1659
     24 F           2.9077    2.1031   -5.6709 F       1  UNL11      -0.1659
     25 C           1.9341    2.0117   -2.8638 C.ar    1  UNL11      -0.0288
     26 H          -1.0759    1.8063   -0.6570 H       1  UNL11       0.0425
     27 H          -1.0423    1.6644    1.1712 H       1  UNL11       0.0425
     28 H          -5.2611   -0.2560    0.0164 H       1  UNL11       0.4829
     29 H          -3.1248   -4.4017    0.0718 H       1  UNL11       0.0627
     30 H          -0.7368   -5.0606    0.1958 H       1  UNL11       0.0618
     31 H           0.9682   -3.3787    0.2256 H       1  UNL11       0.0618
     32 H           0.3682   -0.9262    0.1652 H       1  UNL11       0.0624
     33 H           2.3037    0.2522   -0.7105 H       1  UNL11       0.1548
     34 H          -0.8997    2.1861   -1.0297 H       1  UNL11       0.0636
     35 H          -1.5195    3.6640   -2.7956 H       1  UNL11       0.0618
     36 H           0.0335    4.1719   -4.6282 H       1  UNL11       0.0623
     37 H           2.9102    1.5406   -2.8825 H       1  UNL11       0.0642
@<TRIPOS>BOND
     1     1     2    2
     2     2     3    1
     3     2    15   am
     4     3     4    1
     5     3    26    1
     6     3    27    1
     7     4     5    2
     8     5     6    1
     9     6     7   am
    10     6    28    1
    11     7     8    2
    12     7     9    1
    13     9    10   ar
    14    10    11   ar
    15    10    29    1
    16    11    12   ar
    17    11    30    1
    18    12    13   ar
    19    12    31    1
    20    13    14   ar
    21    13    32    1
    22    14     4    1
    23    14     9   ar
    24    15    16    1
    25    15    33    1
    26    16    17   ar
    27    17    18   ar
    28    17    34    1
    29    18    19   ar
    30    18    35    1
    31    19    20   ar
    32    19    36    1
    33    20    21    1
    34    20    25   ar
    35    21    22    1
    36    21    23    1
    37    21    24    1
    38    25    16   ar
    39    25    37    1
@<TRIPOS>MOLECULE
*****
 37 39 0 0 0
SMALL
GASTEIGER

@<TRIPOS>ATOM
      1 O           1.2706    1.1080    0.8111 O.2     1  UNL11      -0.2751
      2 C           0.3532    0.5119    0.1770 C.2     1  UNL11       0.2232
      3 C          -0.9848    1.1369    0.1807 C.3     1  UNL11       0.0728
      4 C          -1.9782    0.0558    0.0829 C.2     1  UNL11       0.1237
      5 N          -1.5723   -1.2441    0.0095 N.2     1  UNL11      -0.0071
      6 N          -2.3897   -2.2614   -0.1405 N.am    1  UNL11      -0.0356
      7 C          -3.7366   -2.0882   -0.2367 C.2     1  UNL11       0.4383
      8 O          -4.5015   -3.0964   -0.3900 O.2     1  UNL11      -0.2116
      9 C          -4.2366   -0.8098   -0.1729 C.ar    1  UNL11       0.1004
     10 C          -5.6158   -0.6220   -0.2947 C.ar    1  UNL11      -0.0441
     11 C          -6.0917    0.6772   -0.2566 C.ar    1  UNL11      -0.0608
     12 C          -5.2063    1.7231   -0.0981 C.ar    1  UNL11      -0.0611
     13 C          -3.8474    1.4949    0.0211 C.ar    1  UNL11      -0.0518
     14 C          -3.3474    0.2327   -0.0152 C.ar    1  UNL11       0.0194
     15 N           0.6775   -0.7203   -0.4816 N.am    1  UNL11      -0.2852
     16 C           2.0102   -1.1808   -0.3720 C.ar    1  UNL11       0.0339
     17 C           2.3409   -2.0119    0.6711 C.ar    1  UNL11      -0.0405
     18 C           3.6630   -2.4564    0.8764 C.ar    1  UNL11      -0.0595
     19 C           4.6516   -2.0388   -0.0093 C.ar    1  UNL11      -0.0500
     20 C           4.3315   -1.2053   -1.0652 C.ar    1  UNL11       0.0566
     21 C           5.4245   -0.8140   -1.9728 C.3     1  UNL11       0.4175
     22 F           6.6379   -1.3763   -1.5909 F       1  UNL11      -0.1659
     23 F           5.1256   -1.2886   -3.2650 F       1  UNL11      -0.1659
     24 F           5.5530    0.5542   -2.0546 F       1  UNL11      -0.1659
     25 C           3.0355   -0.7935   -1.2285 C.ar    1  UNL11      -0.0288
     26 H          -1.0759    1.8063   -0.6570 H       1  UNL11       0.0425
     27 H          -1.0423    1.6644    1.1712 H       1  UNL11       0.0425
     28 H          -2.0029   -3.2300   -0.2034 H       1  UNL11       0.4829
     29 H          -6.3032   -1.4368   -0.4176 H       1  UNL11       0.0627
     30 H          -7.1585    0.8907   -0.3635 H       1  UNL11       0.0618
     31 H          -5.6369    2.7178   -0.0743 H       1  UNL11       0.0618
     32 H          -3.1539    2.3120    0.1454 H       1  UNL11       0.0624
     33 H          -0.0969   -1.2349   -1.0086 H       1  UNL11       0.1548
     34 H           1.6231   -2.4107    1.3820 H       1  UNL11       0.0636
     35 H           3.8824   -3.1006    1.7079 H       1  UNL11       0.0618
     36 H           5.6598   -2.3896    0.1706 H       1  UNL11       0.0623
     37 H           2.7939   -0.1381   -2.0575 H       1  UNL11       0.0642
@<TRIPOS>BOND
     1     1     2    2
     2     2     3    1
     3     2    15   am
     4     3     4    1
     5     3    26    1
     6     3    27    1
     7     4     5    2
     8     5     6    1
     9     6     7   am
    10     6    28    1
    11     7     8    2
    12     7     9    1
    13     9    10   ar
    14    10    11   ar
    15    10    29    1
    16    11    12   ar
    17    11    30    1
    18    12    13   ar
    19    12    31    1
    20    13    14   ar
    21    13    32    1
    22    14     4    1
    23    14     9   ar
    24    15    16    1
    25    15    33    1
    26    16    17   ar
    27    17    18   ar
    28    17    34    1
    29    18    19   ar
    30    18    35    1
    31    19    20   ar
    32    19    36    1
    33    20    21    1
    34    20    25   ar
    35    21    22    1
    36    21    23    1
    37    21    24    1
    38    25    16   ar
    39    25    37    1
