@<TRIPOS>MOLECULE
*****
 53 56 0 0 0
SMALL
GASTEIGER

@<TRIPOS>ATOM
      1 O          -2.0470   -2.2147   -4.0138 O.2     1  UNL11      -0.2754
      2 C          -1.2598   -1.8187   -3.1205 C.2     1  UNL11       0.2195
      3 C          -1.1379   -2.4971   -1.7862 C.3     1  UNL11       0.0725
      4 C          -0.1744   -1.8121   -0.9716 C.2     1  UNL11       0.1237
      5 N          -0.2974   -1.7977    0.3638 N.2     1  UNL11      -0.0071
      6 N           0.5836   -1.1725    1.1281 N.am    1  UNL11      -0.0356
      7 C           1.6371   -0.5235    0.6425 C.2     1  UNL11       0.4383
      8 O           2.4692    0.0689    1.3903 O.2     1  UNL11      -0.2116
      9 C           1.8364   -0.4909   -0.7296 C.ar    1  UNL11       0.1004
     10 C           2.9125    0.1682   -1.2813 C.ar    1  UNL11      -0.0441
     11 C           3.0424    0.1557   -2.6552 C.ar    1  UNL11      -0.0608
     12 C           2.1220   -0.4985   -3.4676 C.ar    1  UNL11      -0.0611
     13 C           1.0518   -1.1523   -2.8935 C.ar    1  UNL11      -0.0518
     14 C           0.9014   -1.1533   -1.5246 C.ar    1  UNL11       0.0194
     15 N          -0.4617   -0.6774   -3.4104 N.am    1  UNL11      -0.3064
     16 C           0.4920   -0.1359   -2.4689 C.3     1  UNL11       0.0883
     17 C          -0.1777    0.8756   -1.6345 C.2     1  UNL11       0.2328
     18 O           0.5022    1.8364   -1.1914 O.2     1  UNL11      -0.2739
     19 N          -1.5797    0.7907   -1.3173 N.am    1  UNL11      -0.2972
     20 C          -2.1811    1.8165   -0.4939 C.3     1  UNL11       0.0305
     21 C          -3.0681    1.0832    0.5238 C.3     1  UNL11       0.0280
     22 N          -4.0987    0.3761   -0.2145 N.pl3   1  UNL11      -0.3269
     23 C          -5.3247    0.0488    0.4220 C.ar    1  UNL11       0.0299
     24 C          -6.5267   -0.0453   -0.2442 C.ar    1  UNL11      -0.0379
     25 C          -7.7062   -0.3732    0.4031 C.ar    1  UNL11      -0.0247
     26 C          -7.7249   -0.6215    1.7571 C.ar    1  UNL11       0.1235
     27 F          -8.8894   -0.9462    2.4045 F       1  UNL11      -0.2055
     28 C          -6.5373   -0.5350    2.4520 C.ar    1  UNL11      -0.0247
     29 C          -5.3613   -0.2048    1.7873 C.ar    1  UNL11      -0.0379
     30 C          -3.8803   -0.0027   -1.5953 C.3     1  UNL11       0.0280
     31 C          -2.3843   -0.2837   -1.7992 C.3     1  UNL11       0.0305
     32 H          -0.7747   -3.5214   -2.0163 H       1  UNL11       0.0424
     33 H          -2.1543   -2.6107   -1.4155 H       1  UNL11       0.0424
     34 H           0.4341   -1.1965    2.1639 H       1  UNL11       0.4829
     35 H           3.6009    0.6614   -0.6170 H       1  UNL11       0.0627
     36 H           3.8792    0.6689   -3.0777 H       1  UNL11       0.0618
     37 H           2.2460   -0.4937   -4.5385 H       1  UNL11       0.0618
     38 H           0.3065   -1.6772   -3.4850 H       1  UNL11       0.0624
     39 H          -0.5554   -0.1962   -4.3401 H       1  UNL11       0.1492
     40 H           1.3303    0.3928   -2.9930 H       1  UNL11       0.0558
     41 H           0.9620   -0.9436   -1.8778 H       1  UNL11       0.0558
     42 H          -1.4350    2.4243    0.0324 H       1  UNL11       0.0480
     43 H          -2.8818    2.4337   -1.0941 H       1  UNL11       0.0480
     44 H          -2.4186    0.3275    1.0056 H       1  UNL11       0.0479
     45 H          -3.4822    1.8327    1.2332 H       1  UNL11       0.0479
     46 H          -6.5222    0.1530   -1.3215 H       1  UNL11       0.0637
     47 H          -8.6253   -0.4385   -0.1431 H       1  UNL11       0.0647
     48 H          -6.5559   -0.7279    3.5004 H       1  UNL11       0.0647
     49 H          -4.4471   -0.1442    2.3424 H       1  UNL11       0.0637
     50 H          -4.1608    0.8663   -2.2269 H       1  UNL11       0.0479
     51 H          -4.4182   -0.9236   -1.8851 H       1  UNL11       0.0479
     52 H          -2.1908   -1.2489   -1.3276 H       1  UNL11       0.0480
     53 H          -2.2609   -0.3702   -2.9099 H       1  UNL11       0.0480
@<TRIPOS>BOND
     1     1     2    2
     2     2     3    1
     3     2    15   am
     4     3     4    1
     5     3    32    1
     6     3    33    1
     7     4     5    2
     8     5     6    1
     9     6     7   am
    10     6    34    1
    11     7     8    2
    12     7     9    1
    13     9    10   ar
    14    10    11   ar
    15    10    35    1
    16    11    12   ar
    17    11    36    1
    18    12    13   ar
    19    12    37    1
    20    13    14   ar
    21    13    38    1
    22    14     4    1
    23    14     9   ar
    24    15    16    1
    25    15    39    1
    26    16    17    1
    27    16    40    1
    28    16    41    1
    29    17    18    2
    30    17    19   am
    31    19    20    1
    32    20    21    1
    33    20    42    1
    34    20    43    1
    35    21    22    1
    36    21    44    1
    37    21    45    1
    38    22    23    1
    39    22    30    1
    40    23    24   ar
    41    24    25   ar
    42    24    46    1
    43    25    26   ar
    44    25    47    1
    45    26    27    1
    46    26    28   ar
    47    28    29   ar
    48    28    48    1
    49    29    23   ar
    50    29    49    1
    51    30    31    1
    52    30    50    1
    53    30    51    1
    54    31    19    1
    55    31    52    1
    56    31    53    1
@<TRIPOS>MOLECULE
*****
 53 56 0 0 0
SMALL
GASTEIGER

@<TRIPOS>ATOM
      1 O           0.9019   -2.4671    0.2792 O.2     1  UNL11      -0.2754
      2 C           0.3745   -1.5456   -0.3894 C.2     1  UNL11       0.2195
      3 C          -0.8643   -0.8240    0.0580 C.3     1  UNL11       0.0725
      4 C          -0.5091    0.3228    0.8452 C.2     1  UNL11       0.1237
      5 N          -0.8723    1.5546    0.4586 N.2     1  UNL11      -0.0071
      6 N          -0.5542    2.6211    1.1745 N.am    1  UNL11      -0.0356
      7 C           0.1358    2.5565    2.3088 C.2     1  UNL11       0.4383
      8 O           0.4306    3.5887    2.9798 O.2     1  UNL11      -0.2116
      9 C           0.5495    1.3186    2.7779 C.ar    1  UNL11       0.1004
     10 C           1.2667    1.1994    3.9476 C.ar    1  UNL11      -0.0441
     11 C           1.6424   -0.0665    4.3487 C.ar    1  UNL11      -0.0608
     12 C           1.3131   -1.1939    3.6035 C.ar    1  UNL11      -0.0611
     13 C           0.5941   -1.0511    2.4352 C.ar    1  UNL11      -0.0518
     14 C           0.2082    0.2023    2.0149 C.ar    1  UNL11       0.0194
     15 N           0.9964   -1.1902   -1.6185 N.am    1  UNL11      -0.3064
     16 C           0.4920   -0.1359   -2.4689 C.3     1  UNL11       0.0883
     17 C          -0.1777    0.8756   -1.6345 C.2     1  UNL11       0.2328
     18 O           0.5022    1.8364   -1.1914 O.2     1  UNL11      -0.2739
     19 N          -1.5797    0.7907   -1.3173 N.am    1  UNL11      -0.2972
     20 C          -2.1811    1.8165   -0.4939 C.3     1  UNL11       0.0305
     21 C          -3.0681    1.0832    0.5238 C.3     1  UNL11       0.0280
     22 N          -4.0987    0.3761   -0.2145 N.pl3   1  UNL11      -0.3269
     23 C          -5.3247    0.0488    0.4220 C.ar    1  UNL11       0.0299
     24 C          -6.0777   -1.0586    0.0995 C.ar    1  UNL11      -0.0379
     25 C          -7.2674   -1.3557    0.7431 C.ar    1  UNL11      -0.0247
     26 C          -7.7518   -0.5449    1.7446 C.ar    1  UNL11       0.1235
     27 F          -8.9294   -0.8329    2.3857 F       1  UNL11      -0.2055
     28 C          -7.0206    0.5716    2.0903 C.ar    1  UNL11      -0.0247
     29 C          -5.8276    0.8560    1.4345 C.ar    1  UNL11      -0.0379
     30 C          -3.8803   -0.0027   -1.5953 C.3     1  UNL11       0.0280
     31 C          -2.3843   -0.2837   -1.7992 C.3     1  UNL11       0.0305
     32 H          -1.4123   -1.5567    0.6879 H       1  UNL11       0.0424
     33 H          -1.4661   -0.6817   -0.8369 H       1  UNL11       0.0424
     34 H          -0.8660    3.5559    0.8214 H       1  UNL11       0.4829
     35 H           1.5004    2.0971    4.4937 H       1  UNL11       0.0627
     36 H           2.1988   -0.1528    5.2570 H       1  UNL11       0.0618
     37 H           1.6183   -2.1722    3.9385 H       1  UNL11       0.0618
     38 H           0.3129   -1.9006    1.8186 H       1  UNL11       0.0624
     39 H           1.8568   -1.7031   -1.9367 H       1  UNL11       0.1492
     40 H          -0.2834   -0.5199   -3.1817 H       1  UNL11       0.0558
     41 H           1.3009    0.2845   -3.0945 H       1  UNL11       0.0558
     42 H          -1.4350    2.4243    0.0324 H       1  UNL11       0.0480
     43 H          -2.8818    2.4337   -1.0941 H       1  UNL11       0.0480
     44 H          -2.4186    0.3275    1.0056 H       1  UNL11       0.0479
     45 H          -3.4822    1.8327    1.2332 H       1  UNL11       0.0479
     46 H          -5.7016   -1.7085   -0.6980 H       1  UNL11       0.0637
     47 H          -7.8304   -2.2249    0.4693 H       1  UNL11       0.0647
     48 H          -7.3990    1.1971    2.8663 H       1  UNL11       0.0647
     49 H          -5.2711    1.7266    1.7173 H       1  UNL11       0.0637
     50 H          -4.1608    0.8663   -2.2269 H       1  UNL11       0.0479
     51 H          -4.4182   -0.9236   -1.8851 H       1  UNL11       0.0479
     52 H          -2.1908   -1.2489   -1.3276 H       1  UNL11       0.0480
     53 H          -2.2609   -0.3702   -2.9099 H       1  UNL11       0.0480
@<TRIPOS>BOND
     1     1     2    2
     2     2     3    1
     3     2    15   am
     4     3     4    1
     5     3    32    1
     6     3    33    1
     7     4     5    2
     8     5     6    1
     9     6     7   am
    10     6    34    1
    11     7     8    2
    12     7     9    1
    13     9    10   ar
    14    10    11   ar
    15    10    35    1
    16    11    12   ar
    17    11    36    1
    18    12    13   ar
    19    12    37    1
    20    13    14   ar
    21    13    38    1
    22    14     4    1
    23    14     9   ar
    24    15    16    1
    25    15    39    1
    26    16    17    1
    27    16    40    1
    28    16    41    1
    29    17    18    2
    30    17    19   am
    31    19    20    1
    32    20    21    1
    33    20    42    1
    34    20    43    1
    35    21    22    1
    36    21    44    1
    37    21    45    1
    38    22    23    1
    39    22    30    1
    40    23    24   ar
    41    24    25   ar
    42    24    46    1
    43    25    26   ar
    44    25    47    1
    45    26    27    1
    46    26    28   ar
    47    28    29   ar
    48    28    48    1
    49    29    23   ar
    50    29    49    1
    51    30    31    1
    52    30    50    1
    53    30    51    1
    54    31    19    1
    55    31    52    1
    56    31    53    1
@<TRIPOS>MOLECULE
*****
 53 56 0 0 0
SMALL
GASTEIGER

@<TRIPOS>ATOM
      1 O          -2.4103   -1.7752   -3.8985 O.2     1  UNL11      -0.2754
      2 C          -1.6574   -1.3293   -2.9992 C.2     1  UNL11       0.2195
      3 C          -1.9730   -1.4598   -1.5368 C.3     1  UNL11       0.0725
      4 C          -0.9404   -0.8431   -0.7531 C.2     1  UNL11       0.1237
      5 N           0.3218   -0.7956   -1.2041 N.2     1  UNL11      -0.0071
      6 N           1.2841   -0.2288   -0.4943 N.am    1  UNL11      -0.0356
      7 C           1.0796    0.3259    0.6962 C.2     1  UNL11       0.4383
      8 O           2.0136    0.8636    1.3603 O.2     1  UNL11      -0.2116
      9 C          -0.1988    0.3185    1.2340 C.ar    1  UNL11       0.1004
     10 C          -0.4615    0.8802    2.4637 C.ar    1  UNL11      -0.0441
     11 C          -1.7591    0.8332    2.9313 C.ar    1  UNL11      -0.0608
     12 C          -2.7779    0.2398    2.1930 C.ar    1  UNL11      -0.0611
     13 C          -2.4920   -0.3166    0.9638 C.ar    1  UNL11      -0.0518
     14 C          -1.2044   -0.2816    0.4766 C.ar    1  UNL11       0.0194
     15 N          -0.4617   -0.6774   -3.4104 N.am    1  UNL11      -0.3064
     16 C           0.4920   -0.1359   -2.4689 C.3     1  UNL11       0.0883
     17 C          -0.1777    0.8756   -1.6345 C.2     1  UNL11       0.2328
     18 O           0.5022    1.8364   -1.1914 O.2     1  UNL11      -0.2739
     19 N          -1.5797    0.7907   -1.3173 N.am    1  UNL11      -0.2972
     20 C          -2.1811    1.8165   -0.4939 C.3     1  UNL11       0.0305
     21 C          -3.0681    1.0832    0.5238 C.3     1  UNL11       0.0280
     22 N          -4.0987    0.3761   -0.2145 N.pl3   1  UNL11      -0.3269
     23 C          -5.3247    0.0488    0.4220 C.ar    1  UNL11       0.0299
     24 C          -6.5267   -0.0453   -0.2442 C.ar    1  UNL11      -0.0379
     25 C          -7.7062   -0.3732    0.4031 C.ar    1  UNL11      -0.0247
     26 C          -7.7249   -0.6215    1.7571 C.ar    1  UNL11       0.1235
     27 F          -8.8894   -0.9462    2.4045 F       1  UNL11      -0.2055
     28 C          -6.5373   -0.5350    2.4520 C.ar    1  UNL11      -0.0247
     29 C          -5.3613   -0.2048    1.7873 C.ar    1  UNL11      -0.0379
     30 C          -3.8803   -0.0027   -1.5953 C.3     1  UNL11       0.0280
     31 C          -2.3843   -0.2837   -1.7992 C.3     1  UNL11       0.0305
     32 H          -1.9894   -2.5535   -1.3425 H       1  UNL11       0.0424
     33 H          -2.9981   -1.1148   -1.4211 H       1  UNL11       0.0424
     34 H           2.2494   -0.2226   -0.8993 H       1  UNL11       0.4829
     35 H           0.3554    1.3291    3.0020 H       1  UNL11       0.0627
     36 H          -1.9570    1.2705    3.8861 H       1  UNL11       0.0618
     37 H          -3.7837    0.2162    2.5805 H       1  UNL11       0.0618
     38 H          -3.2528   -0.7912    0.3499 H       1  UNL11       0.0624
     39 H          -0.2467   -0.5763   -4.4342 H       1  UNL11       0.1492
     40 H           1.3303    0.3928   -2.9930 H       1  UNL11       0.0558
     41 H           0.9620   -0.9436   -1.8778 H       1  UNL11       0.0558
     42 H          -1.4350    2.4243    0.0324 H       1  UNL11       0.0480
     43 H          -2.8818    2.4337   -1.0941 H       1  UNL11       0.0480
     44 H          -2.4186    0.3275    1.0056 H       1  UNL11       0.0479
     45 H          -3.4822    1.8327    1.2332 H       1  UNL11       0.0479
     46 H          -6.5222    0.1530   -1.3215 H       1  UNL11       0.0637
     47 H          -8.6253   -0.4385   -0.1431 H       1  UNL11       0.0647
     48 H          -6.5559   -0.7279    3.5004 H       1  UNL11       0.0647
     49 H          -4.4471   -0.1442    2.3424 H       1  UNL11       0.0637
     50 H          -4.1608    0.8663   -2.2269 H       1  UNL11       0.0479
     51 H          -4.4182   -0.9236   -1.8851 H       1  UNL11       0.0479
     52 H          -2.1908   -1.2489   -1.3276 H       1  UNL11       0.0480
     53 H          -2.2609   -0.3702   -2.9099 H       1  UNL11       0.0480
@<TRIPOS>BOND
     1     1     2    2
     2     2     3    1
     3     2    15   am
     4     3     4    1
     5     3    32    1
     6     3    33    1
     7     4     5    2
     8     5     6    1
     9     6     7   am
    10     6    34    1
    11     7     8    2
    12     7     9    1
    13     9    10   ar
    14    10    11   ar
    15    10    35    1
    16    11    12   ar
    17    11    36    1
    18    12    13   ar
    19    12    37    1
    20    13    14   ar
    21    13    38    1
    22    14     4    1
    23    14     9   ar
    24    15    16    1
    25    15    39    1
    26    16    17    1
    27    16    40    1
    28    16    41    1
    29    17    18    2
    30    17    19   am
    31    19    20    1
    32    20    21    1
    33    20    42    1
    34    20    43    1
    35    21    22    1
    36    21    44    1
    37    21    45    1
    38    22    23    1
    39    22    30    1
    40    23    24   ar
    41    24    25   ar
    42    24    46    1
    43    25    26   ar
    44    25    47    1
    45    26    27    1
    46    26    28   ar
    47    28    29   ar
    48    28    48    1
    49    29    23   ar
    50    29    49    1
    51    30    31    1
    52    30    50    1
    53    30    51    1
    54    31    19    1
    55    31    52    1
    56    31    53    1
@<TRIPOS>MOLECULE
*****
 53 56 0 0 0
SMALL
GASTEIGER

@<TRIPOS>ATOM
      1 O           0.9166    1.2244   -5.8042 O.2     1  UNL11      -0.2754
      2 C           0.3302    0.6600   -4.8492 C.2     1  UNL11       0.2195
      3 C          -1.0790    0.1504   -4.9484 C.3     1  UNL11       0.0725
      4 C          -1.4825   -0.4289   -3.6983 C.2     1  UNL11       0.1237
      5 N          -0.6391   -0.4572   -2.6559 N.2     1  UNL11      -0.0071
      6 N          -0.9970   -0.9858   -1.4968 N.am    1  UNL11      -0.0356
      7 C          -2.1951   -1.5189   -1.2794 C.2     1  UNL11       0.4383
      8 O          -2.5189   -2.0200   -0.1629 O.2     1  UNL11      -0.2116
      9 C          -3.1262   -1.5292   -2.3072 C.ar    1  UNL11       0.1004
     10 C          -4.3806   -2.0700   -2.1316 C.ar    1  UNL11      -0.0441
     11 C          -5.2513   -2.0428   -3.2019 C.ar    1  UNL11      -0.0608
     12 C          -4.8849   -1.4895   -4.4245 C.ar    1  UNL11      -0.0611
     13 C          -3.6234   -0.9535   -4.5780 C.ar    1  UNL11      -0.0518
     14 C          -2.7374   -0.9693   -3.5239 C.ar    1  UNL11       0.0194
     15 N           1.0537    0.5100   -3.6336 N.am    1  UNL11      -0.3064
     16 C           0.4920   -0.1359   -2.4689 C.3     1  UNL11       0.0883
     17 C          -0.1777    0.8756   -1.6345 C.2     1  UNL11       0.2328
     18 O           0.5022    1.8364   -1.1914 O.2     1  UNL11      -0.2739
     19 N          -1.5797    0.7907   -1.3173 N.am    1  UNL11      -0.2972
     20 C          -2.3506   -0.3266   -1.8167 C.3     1  UNL11       0.0305
     21 C          -3.6674    0.2635   -2.3441 C.3     1  UNL11       0.0280
     22 N          -4.3576    0.8781   -1.2248 N.pl3   1  UNL11      -0.3269
     23 C          -5.7672    1.0415   -1.2682 C.ar    1  UNL11       0.0299
     24 C          -6.4340    2.0690   -0.6380 C.ar    1  UNL11      -0.0379
     25 C          -7.8104    2.2063   -0.7037 C.ar    1  UNL11      -0.0247
     26 C          -8.5781    1.3088   -1.4111 C.ar    1  UNL11       0.1235
     27 F          -9.9415    1.4384   -1.4800 F       1  UNL11      -0.2055
     28 C          -7.9397    0.2690   -2.0530 C.ar    1  UNL11      -0.0247
     29 C          -6.5566    0.1452   -1.9775 C.ar    1  UNL11      -0.0379
     30 C          -3.6153    1.3312   -0.0667 C.3     1  UNL11       0.0280
     31 C          -2.2206    1.7857   -0.5215 C.3     1  UNL11       0.0305
     32 H          -1.0463   -0.6352   -5.7331 H       1  UNL11       0.0424
     33 H          -1.6638    0.9693   -5.3617 H       1  UNL11       0.0424
     34 H          -0.2950   -0.9785   -0.7202 H       1  UNL11       0.4829
     35 H          -4.6234   -2.4877   -1.1697 H       1  UNL11       0.0627
     36 H          -6.2232   -2.4639   -3.0599 H       1  UNL11       0.0618
     37 H          -5.5837   -1.4803   -5.2454 H       1  UNL11       0.0618
     38 H          -3.2903   -0.5103   -5.5126 H       1  UNL11       0.0624
     39 H           2.0360    0.8768   -3.5610 H       1  UNL11       0.1492
     40 H           1.2906   -0.5937   -1.8290 H       1  UNL11       0.0558
     41 H          -0.1762   -0.9659   -2.7643 H       1  UNL11       0.0558
     42 H          -1.8360   -0.8665   -2.6209 H       1  UNL11       0.0480
     43 H          -2.6489   -0.9952   -0.9823 H       1  UNL11       0.0480
     44 H          -3.3805    1.0684   -3.0476 H       1  UNL11       0.0479
     45 H          -4.2541   -0.5541   -2.8172 H       1  UNL11       0.0479
     46 H          -5.8318    2.7868   -0.0704 H       1  UNL11       0.0637
     47 H          -8.2998    3.0166   -0.2024 H       1  UNL11       0.0647
     48 H          -8.5375   -0.4240   -2.5998 H       1  UNL11       0.0647
     49 H          -6.0767   -0.6676   -2.4842 H       1  UNL11       0.0637
     50 H          -3.4940    0.4608    0.6120 H       1  UNL11       0.0479
     51 H          -4.0813    2.1963    0.4389 H       1  UNL11       0.0479
     52 H          -2.3625    2.7479   -1.0169 H       1  UNL11       0.0480
     53 H          -1.6445    1.9276    0.4295 H       1  UNL11       0.0480
@<TRIPOS>BOND
     1     1     2    2
     2     2     3    1
     3     2    15   am
     4     3     4    1
     5     3    32    1
     6     3    33    1
     7     4     5    2
     8     5     6    1
     9     6     7   am
    10     6    34    1
    11     7     8    2
    12     7     9    1
    13     9    10   ar
    14    10    11   ar
    15    10    35    1
    16    11    12   ar
    17    11    36    1
    18    12    13   ar
    19    12    37    1
    20    13    14   ar
    21    13    38    1
    22    14     4    1
    23    14     9   ar
    24    15    16    1
    25    15    39    1
    26    16    17    1
    27    16    40    1
    28    16    41    1
    29    17    18    2
    30    17    19   am
    31    19    20    1
    32    20    21    1
    33    20    42    1
    34    20    43    1
    35    21    22    1
    36    21    44    1
    37    21    45    1
    38    22    23    1
    39    22    30    1
    40    23    24   ar
    41    24    25   ar
    42    24    46    1
    43    25    26   ar
    44    25    47    1
    45    26    27    1
    46    26    28   ar
    47    28    29   ar
    48    28    48    1
    49    29    23   ar
    50    29    49    1
    51    30    31    1
    52    30    50    1
    53    30    51    1
    54    31    19    1
    55    31    52    1
    56    31    53    1
@<TRIPOS>MOLECULE
*****
 53 56 0 0 0
SMALL
GASTEIGER

@<TRIPOS>ATOM
      1 O           0.8450    1.7432   -5.5509 O.2     1  UNL11      -0.2754
      2 C           0.2586    1.2320   -4.5664 C.2     1  UNL11       0.2195
      3 C          -1.2220    1.3567   -4.3484 C.3     1  UNL11       0.0725
      4 C          -1.5902    2.7406   -4.2476 C.2     1  UNL11       0.1237
      5 N          -2.8010    3.1552   -4.6485 N.2     1  UNL11      -0.0071
      6 N          -3.1557    4.4271   -4.5601 N.am    1  UNL11      -0.0356
      7 C          -2.3566    5.3733   -4.0774 C.2     1  UNL11       0.4383
      8 O          -2.7143    6.5852   -4.0009 O.2     1  UNL11      -0.2116
      9 C          -1.0866    5.0268   -3.6412 C.ar    1  UNL11       0.1004
     10 C          -0.2217    5.9705   -3.1332 C.ar    1  UNL11      -0.0441
     11 C           1.0253    5.5478   -2.7198 C.ar    1  UNL11      -0.0608
     12 C           1.4080    4.2133   -2.8084 C.ar    1  UNL11      -0.0611
     13 C           0.5256    3.2851   -3.3204 C.ar    1  UNL11      -0.0518
     14 C          -0.7243    3.6836   -3.7394 C.ar    1  UNL11       0.0194
     15 N           1.0537    0.5100   -3.6336 N.am    1  UNL11      -0.3064
     16 C           0.4920   -0.1359   -2.4689 C.3     1  UNL11       0.0883
     17 C          -0.1777    0.8756   -1.6345 C.2     1  UNL11       0.2328
     18 O           0.5022    1.8364   -1.1914 O.2     1  UNL11      -0.2739
     19 N          -1.5797    0.7907   -1.3173 N.am    1  UNL11      -0.2972
     20 C          -2.1811    1.8165   -0.4939 C.3     1  UNL11       0.0305
     21 C          -3.0681    1.0832    0.5238 C.3     1  UNL11       0.0280
     22 N          -4.0987    0.3761   -0.2145 N.pl3   1  UNL11      -0.3269
     23 C          -5.3247    0.0488    0.4220 C.ar    1  UNL11       0.0299
     24 C          -6.0777   -1.0586    0.0995 C.ar    1  UNL11      -0.0379
     25 C          -7.2674   -1.3557    0.7431 C.ar    1  UNL11      -0.0247
     26 C          -7.7518   -0.5449    1.7446 C.ar    1  UNL11       0.1235
     27 F          -8.9294   -0.8329    2.3857 F       1  UNL11      -0.2055
     28 C          -7.0206    0.5716    2.0903 C.ar    1  UNL11      -0.0247
     29 C          -5.8276    0.8560    1.4345 C.ar    1  UNL11      -0.0379
     30 C          -3.8803   -0.0027   -1.5953 C.3     1  UNL11       0.0280
     31 C          -2.3843   -0.2837   -1.7992 C.3     1  UNL11       0.0305
     32 H          -1.4143    0.8456   -3.3809 H       1  UNL11       0.0424
     33 H          -1.6891    0.7426   -5.1151 H       1  UNL11       0.0424
     34 H          -4.1142    4.6898   -4.8890 H       1  UNL11       0.4829
     35 H          -0.5575    6.9919   -3.0822 H       1  UNL11       0.0627
     36 H           1.6922    6.2845   -2.3267 H       1  UNL11       0.0618
     37 H           2.3880    3.9084   -2.4784 H       1  UNL11       0.0618
     38 H           0.7776    2.2319   -3.4101 H       1  UNL11       0.0624
     39 H           2.0915    0.4325   -3.7806 H       1  UNL11       0.1492
     40 H           1.2906   -0.5937   -1.8290 H       1  UNL11       0.0558
     41 H          -0.1762   -0.9659   -2.7643 H       1  UNL11       0.0558
     42 H          -1.4350    2.4243    0.0324 H       1  UNL11       0.0480
     43 H          -2.8818    2.4337   -1.0941 H       1  UNL11       0.0480
     44 H          -2.4186    0.3275    1.0056 H       1  UNL11       0.0479
     45 H          -3.4822    1.8327    1.2332 H       1  UNL11       0.0479
     46 H          -5.7016   -1.7085   -0.6980 H       1  UNL11       0.0637
     47 H          -7.8304   -2.2249    0.4693 H       1  UNL11       0.0647
     48 H          -7.3990    1.1971    2.8663 H       1  UNL11       0.0647
     49 H          -5.2711    1.7266    1.7173 H       1  UNL11       0.0637
     50 H          -4.1608    0.8663   -2.2269 H       1  UNL11       0.0479
     51 H          -4.4182   -0.9236   -1.8851 H       1  UNL11       0.0479
     52 H          -2.1908   -1.2489   -1.3276 H       1  UNL11       0.0480
     53 H          -2.2609   -0.3702   -2.9099 H       1  UNL11       0.0480
@<TRIPOS>BOND
     1     1     2    2
     2     2     3    1
     3     2    15   am
     4     3     4    1
     5     3    32    1
     6     3    33    1
     7     4     5    2
     8     5     6    1
     9     6     7   am
    10     6    34    1
    11     7     8    2
    12     7     9    1
    13     9    10   ar
    14    10    11   ar
    15    10    35    1
    16    11    12   ar
    17    11    36    1
    18    12    13   ar
    19    12    37    1
    20    13    14   ar
    21    13    38    1
    22    14     4    1
    23    14     9   ar
    24    15    16    1
    25    15    39    1
    26    16    17    1
    27    16    40    1
    28    16    41    1
    29    17    18    2
    30    17    19   am
    31    19    20    1
    32    20    21    1
    33    20    42    1
    34    20    43    1
    35    21    22    1
    36    21    44    1
    37    21    45    1
    38    22    23    1
    39    22    30    1
    40    23    24   ar
    41    24    25   ar
    42    24    46    1
    43    25    26   ar
    44    25    47    1
    45    26    27    1
    46    26    28   ar
    47    28    29   ar
    48    28    48    1
    49    29    23   ar
    50    29    49    1
    51    30    31    1
    52    30    50    1
    53    30    51    1
    54    31    19    1
    55    31    52    1
    56    31    53    1
@<TRIPOS>MOLECULE
*****
 53 56 0 0 0
SMALL
GASTEIGER

@<TRIPOS>ATOM
      1 O           0.8450    1.7432   -5.5509 O.2     1  UNL11      -0.2754
      2 C           0.2586    1.2320   -4.5664 C.2     1  UNL11       0.2195
      3 C          -1.2220    1.3567   -4.3484 C.3     1  UNL11       0.0725
      4 C          -1.5995    0.6864   -3.1363 C.2     1  UNL11       0.1237
      5 N          -2.6433    1.1193   -2.4141 N.2     1  UNL11      -0.0071
      6 N          -3.0048    0.5108   -1.2959 N.am    1  UNL11      -0.0356
      7 C          -2.3747   -0.5546   -0.8111 C.2     1  UNL11       0.4383
      8 O          -2.7358   -1.1230    0.2609 O.2     1  UNL11      -0.2116
      9 C          -1.2840   -1.0651   -1.4990 C.ar    1  UNL11       0.1004
     10 C          -0.5983   -2.1667   -1.0375 C.ar    1  UNL11      -0.0441
     11 C           0.4766   -2.6151   -1.7779 C.ar    1  UNL11      -0.0608
     12 C           0.8646   -1.9827   -2.9546 C.ar    1  UNL11      -0.0611
     13 C           0.1633   -0.8810   -3.3981 C.ar    1  UNL11      -0.0518
     14 C          -0.9128   -0.4154   -2.6758 C.ar    1  UNL11       0.0194
     15 N           1.0537    0.5100   -3.6336 N.am    1  UNL11      -0.3064
     16 C           0.4920   -0.1359   -2.4689 C.3     1  UNL11       0.0883
     17 C          -0.1777    0.8756   -1.6345 C.2     1  UNL11       0.2328
     18 O           0.5022    1.8364   -1.1914 O.2     1  UNL11      -0.2739
     19 N          -1.5797    0.7907   -1.3173 N.am    1  UNL11      -0.2972
     20 C          -2.1811    1.8165   -0.4939 C.3     1  UNL11       0.0305
     21 C          -3.0681    1.0832    0.5238 C.3     1  UNL11       0.0280
     22 N          -4.0987    0.3761   -0.2145 N.pl3   1  UNL11      -0.3269
     23 C          -5.3247    0.0488    0.4220 C.ar    1  UNL11       0.0299
     24 C          -6.0777   -1.0586    0.0995 C.ar    1  UNL11      -0.0379
     25 C          -7.2674   -1.3557    0.7431 C.ar    1  UNL11      -0.0247
     26 C          -7.7518   -0.5449    1.7446 C.ar    1  UNL11       0.1235
     27 F          -8.9294   -0.8329    2.3857 F       1  UNL11      -0.2055
     28 C          -7.0206    0.5716    2.0903 C.ar    1  UNL11      -0.0247
     29 C          -5.8276    0.8560    1.4345 C.ar    1  UNL11      -0.0379
     30 C          -3.8803   -0.0027   -1.5953 C.3     1  UNL11       0.0280
     31 C          -2.3843   -0.2837   -1.7992 C.3     1  UNL11       0.0305
     32 H          -1.6851    0.8462   -5.2196 H       1  UNL11       0.0424
     33 H          -1.4515    2.4143   -4.4579 H       1  UNL11       0.0424
     34 H          -3.8279    0.8953   -0.7759 H       1  UNL11       0.4829
     35 H          -0.9316   -2.6260   -0.1229 H       1  UNL11       0.0627
     36 H           1.0050   -3.4702   -1.4149 H       1  UNL11       0.0618
     37 H           1.7080   -2.3528   -3.5150 H       1  UNL11       0.0618
     38 H           0.4273   -0.3530   -4.3104 H       1  UNL11       0.0624
     39 H           2.0915    0.4325   -3.7806 H       1  UNL11       0.1492
     40 H           1.2906   -0.5937   -1.8290 H       1  UNL11       0.0558
     41 H          -0.1762   -0.9659   -2.7643 H       1  UNL11       0.0558
     42 H          -1.4350    2.4243    0.0324 H       1  UNL11       0.0480
     43 H          -2.8818    2.4337   -1.0941 H       1  UNL11       0.0480
     44 H          -2.4186    0.3275    1.0056 H       1  UNL11       0.0479
     45 H          -3.4822    1.8327    1.2332 H       1  UNL11       0.0479
     46 H          -5.7016   -1.7085   -0.6980 H       1  UNL11       0.0637
     47 H          -7.8304   -2.2249    0.4693 H       1  UNL11       0.0647
     48 H          -7.3990    1.1971    2.8663 H       1  UNL11       0.0647
     49 H          -5.2711    1.7266    1.7173 H       1  UNL11       0.0637
     50 H          -4.1608    0.8663   -2.2269 H       1  UNL11       0.0479
     51 H          -4.4182   -0.9236   -1.8851 H       1  UNL11       0.0479
     52 H          -2.1908   -1.2489   -1.3276 H       1  UNL11       0.0480
     53 H          -2.2609   -0.3702   -2.9099 H       1  UNL11       0.0480
@<TRIPOS>BOND
     1     1     2    2
     2     2     3    1
     3     2    15   am
     4     3     4    1
     5     3    32    1
     6     3    33    1
     7     4     5    2
     8     5     6    1
     9     6     7   am
    10     6    34    1
    11     7     8    2
    12     7     9    1
    13     9    10   ar
    14    10    11   ar
    15    10    35    1
    16    11    12   ar
    17    11    36    1
    18    12    13   ar
    19    12    37    1
    20    13    14   ar
    21    13    38    1
    22    14     4    1
    23    14     9   ar
    24    15    16    1
    25    15    39    1
    26    16    17    1
    27    16    40    1
    28    16    41    1
    29    17    18    2
    30    17    19   am
    31    19    20    1
    32    20    21    1
    33    20    42    1
    34    20    43    1
    35    21    22    1
    36    21    44    1
    37    21    45    1
    38    22    23    1
    39    22    30    1
    40    23    24   ar
    41    24    25   ar
    42    24    46    1
    43    25    26   ar
    44    25    47    1
    45    26    27    1
    46    26    28   ar
    47    28    29   ar
    48    28    48    1
    49    29    23   ar
    50    29    49    1
    51    30    31    1
    52    30    50    1
    53    30    51    1
    54    31    19    1
    55    31    52    1
    56    31    53    1
@<TRIPOS>MOLECULE
*****
 53 56 0 0 0
SMALL
GASTEIGER

@<TRIPOS>ATOM
      1 O          -1.1105   -2.3573   -1.9970 O.2     1  UNL11      -0.2754
      2 C          -1.2598   -1.8187   -3.1205 C.2     1  UNL11       0.2195
      3 C          -2.2322   -2.3308   -4.1440 C.3     1  UNL11       0.0725
      4 C          -3.5072   -1.6933   -3.9743 C.2     1  UNL11       0.1237
      5 N          -3.6255   -0.3626   -4.0923 N.2     1  UNL11      -0.0071
      6 N          -4.7942    0.2394   -3.9408 N.am    1  UNL11      -0.0356
      7 C          -5.9187   -0.4138   -3.6654 C.2     1  UNL11       0.4383
      8 O          -7.0276    0.1802   -3.5240 O.2     1  UNL11      -0.2116
      9 C          -5.8816   -1.7933   -3.5272 C.ar    1  UNL11       0.1004
     10 C          -7.0194   -2.5151   -3.2421 C.ar    1  UNL11      -0.0441
     11 C          -6.9017   -3.8847   -3.1198 C.ar    1  UNL11      -0.0608
     12 C          -5.6780   -4.5272   -3.2772 C.ar    1  UNL11      -0.0611
     13 C          -4.5514   -3.7844   -3.5626 C.ar    1  UNL11      -0.0518
     14 C          -4.6445   -2.4163   -3.6892 C.ar    1  UNL11       0.0194
     15 N          -0.4617   -0.6774   -3.4104 N.am    1  UNL11      -0.3064
     16 C           0.4920   -0.1359   -2.4689 C.3     1  UNL11       0.0883
     17 C          -0.1777    0.8756   -1.6345 C.2     1  UNL11       0.2328
     18 O           0.5022    1.8364   -1.1914 O.2     1  UNL11      -0.2739
     19 N          -1.5797    0.7907   -1.3173 N.am    1  UNL11      -0.2972
     20 C          -2.3506   -0.3266   -1.8167 C.3     1  UNL11       0.0305
     21 C          -3.6674    0.2635   -2.3441 C.3     1  UNL11       0.0280
     22 N          -4.3576    0.8781   -1.2248 N.pl3   1  UNL11      -0.3269
     23 C          -5.7672    1.0415   -1.2682 C.ar    1  UNL11       0.0299
     24 C          -6.4340    2.0690   -0.6380 C.ar    1  UNL11      -0.0379
     25 C          -7.8104    2.2063   -0.7037 C.ar    1  UNL11      -0.0247
     26 C          -8.5781    1.3088   -1.4111 C.ar    1  UNL11       0.1235
     27 F          -9.9415    1.4384   -1.4800 F       1  UNL11      -0.2055
     28 C          -7.9397    0.2690   -2.0530 C.ar    1  UNL11      -0.0247
     29 C          -6.5566    0.1452   -1.9775 C.ar    1  UNL11      -0.0379
     30 C          -3.6153    1.3312   -0.0667 C.3     1  UNL11       0.0280
     31 C          -2.2206    1.7857   -0.5215 C.3     1  UNL11       0.0305
     32 H          -2.3250   -3.4178   -3.9341 H       1  UNL11       0.0424
     33 H          -1.7263   -2.2482   -5.1034 H       1  UNL11       0.0424
     34 H          -4.8233    1.2806   -4.0449 H       1  UNL11       0.4829
     35 H          -7.9457   -1.9789   -3.1283 H       1  UNL11       0.0627
     36 H          -7.7878   -4.4395   -2.8984 H       1  UNL11       0.0618
     37 H          -5.6124   -5.5986   -3.1768 H       1  UNL11       0.0618
     38 H          -3.5735   -4.2396   -3.6944 H       1  UNL11       0.0624
     39 H          -0.5554   -0.1962   -4.3401 H       1  UNL11       0.1492
     40 H           1.3303    0.3928   -2.9930 H       1  UNL11       0.0558
     41 H           0.9620   -0.9436   -1.8778 H       1  UNL11       0.0558
     42 H          -1.8360   -0.8665   -2.6209 H       1  UNL11       0.0480
     43 H          -2.6489   -0.9952   -0.9823 H       1  UNL11       0.0480
     44 H          -3.3805    1.0684   -3.0476 H       1  UNL11       0.0479
     45 H          -4.2541   -0.5541   -2.8172 H       1  UNL11       0.0479
     46 H          -5.8318    2.7868   -0.0704 H       1  UNL11       0.0637
     47 H          -8.2998    3.0166   -0.2024 H       1  UNL11       0.0647
     48 H          -8.5375   -0.4240   -2.5998 H       1  UNL11       0.0647
     49 H          -6.0767   -0.6676   -2.4842 H       1  UNL11       0.0637
     50 H          -3.4940    0.4608    0.6120 H       1  UNL11       0.0479
     51 H          -4.0813    2.1963    0.4389 H       1  UNL11       0.0479
     52 H          -2.3625    2.7479   -1.0169 H       1  UNL11       0.0480
     53 H          -1.6445    1.9276    0.4295 H       1  UNL11       0.0480
@<TRIPOS>BOND
     1     1     2    2
     2     2     3    1
     3     2    15   am
     4     3     4    1
     5     3    32    1
     6     3    33    1
     7     4     5    2
     8     5     6    1
     9     6     7   am
    10     6    34    1
    11     7     8    2
    12     7     9    1
    13     9    10   ar
    14    10    11   ar
    15    10    35    1
    16    11    12   ar
    17    11    36    1
    18    12    13   ar
    19    12    37    1
    20    13    14   ar
    21    13    38    1
    22    14     4    1
    23    14     9   ar
    24    15    16    1
    25    15    39    1
    26    16    17    1
    27    16    40    1
    28    16    41    1
    29    17    18    2
    30    17    19   am
    31    19    20    1
    32    20    21    1
    33    20    42    1
    34    20    43    1
    35    21    22    1
    36    21    44    1
    37    21    45    1
    38    22    23    1
    39    22    30    1
    40    23    24   ar
    41    24    25   ar
    42    24    46    1
    43    25    26   ar
    44    25    47    1
    45    26    27    1
    46    26    28   ar
    47    28    29   ar
    48    28    48    1
    49    29    23   ar
    50    29    49    1
    51    30    31    1
    52    30    50    1
    53    30    51    1
    54    31    19    1
    55    31    52    1
    56    31    53    1
@<TRIPOS>MOLECULE
*****
 53 56 0 0 0
SMALL
GASTEIGER

@<TRIPOS>ATOM
      1 O           0.2022   -2.7458    0.0329 O.2     1  UNL11      -0.2754
      2 C           0.2885   -1.5783   -0.4187 C.2     1  UNL11       0.2195
      3 C           0.3038   -0.3645    0.4654 C.3     1  UNL11       0.0725
      4 C          -0.4446   -0.6187    1.6639 C.2     1  UNL11       0.1237
      5 N          -0.5283   -1.8597    2.1655 N.2     1  UNL11      -0.0071
      6 N          -1.2125   -2.1095    3.2703 N.am    1  UNL11      -0.0356
      7 C          -1.8568   -1.1699    3.9550 C.2     1  UNL11       0.4383
      8 O          -2.5063   -1.4287    5.0104 O.2     1  UNL11      -0.2116
      9 C          -1.8197    0.1406    3.5025 C.ar    1  UNL11       0.1004
     10 C          -2.4711    1.1496    4.1766 C.ar    1  UNL11      -0.0441
     11 C          -2.3873    2.4280    3.6636 C.ar    1  UNL11      -0.0608
     12 C          -1.6708    2.7012    2.5030 C.ar    1  UNL11      -0.0611
     13 C          -1.0261    1.6752    1.8441 C.ar    1  UNL11      -0.0518
     14 C          -1.0956    0.3913    2.3373 C.ar    1  UNL11       0.0194
     15 N           0.3739   -1.4273   -1.8306 N.am    1  UNL11      -0.3064
     16 C           0.4920   -0.1359   -2.4689 C.3     1  UNL11       0.0883
     17 C          -0.1777    0.8756   -1.6345 C.2     1  UNL11       0.2328
     18 O           0.5022    1.8364   -1.1914 O.2     1  UNL11      -0.2739
     19 N          -1.5797    0.7907   -1.3173 N.am    1  UNL11      -0.2972
     20 C          -2.1811    1.8165   -0.4939 C.3     1  UNL11       0.0305
     21 C          -3.0681    1.0832    0.5238 C.3     1  UNL11       0.0280
     22 N          -4.0987    0.3761   -0.2145 N.pl3   1  UNL11      -0.3269
     23 C          -5.3247    0.0488    0.4220 C.ar    1  UNL11       0.0299
     24 C          -5.8791    0.7977    1.4365 C.ar    1  UNL11      -0.0379
     25 C          -7.0809    0.4567    2.0343 C.ar    1  UNL11      -0.0247
     26 C          -7.7791   -0.6598    1.6330 C.ar    1  UNL11       0.1235
     27 F          -8.9694   -1.0036    2.2209 F       1  UNL11      -0.2055
     28 C          -7.2499   -1.4301    0.6194 C.ar    1  UNL11      -0.0247
     29 C          -6.0420   -1.0741    0.0293 C.ar    1  UNL11      -0.0379
     30 C          -3.8803   -0.0027   -1.5953 C.3     1  UNL11       0.0280
     31 C          -2.3843   -0.2837   -1.7992 C.3     1  UNL11       0.0305
     32 H          -0.1966    0.4301   -0.1282 H       1  UNL11       0.0424
     33 H           1.3475   -0.0699    0.5496 H       1  UNL11       0.0424
     34 H          -1.2411   -3.0983    3.6128 H       1  UNL11       0.4829
     35 H          -3.0140    0.8950    5.0705 H       1  UNL11       0.0627
     36 H          -2.8949    3.2068    4.1908 H       1  UNL11       0.0618
     37 H          -1.6205    3.7087    2.1226 H       1  UNL11       0.0618
     38 H          -0.4542    1.8378    0.9345 H       1  UNL11       0.0624
     39 H           0.3518   -2.2765   -2.4497 H       1  UNL11       0.1492
     40 H          -0.0286   -0.1203   -3.4617 H       1  UNL11       0.0558
     41 H           1.5513    0.1045   -2.6753 H       1  UNL11       0.0558
     42 H          -1.4350    2.4243    0.0324 H       1  UNL11       0.0480
     43 H          -2.8818    2.4337   -1.0941 H       1  UNL11       0.0480
     44 H          -2.4186    0.3275    1.0056 H       1  UNL11       0.0479
     45 H          -3.4822    1.8327    1.2332 H       1  UNL11       0.0479
     46 H          -5.3295    1.6867    1.7644 H       1  UNL11       0.0637
     47 H          -7.4862    1.0598    2.8213 H       1  UNL11       0.0647
     48 H          -7.7934   -2.2940    0.3115 H       1  UNL11       0.0647
     49 H          -5.6463   -1.6828   -0.7585 H       1  UNL11       0.0637
     50 H          -4.1608    0.8663   -2.2269 H       1  UNL11       0.0479
     51 H          -4.4182   -0.9236   -1.8851 H       1  UNL11       0.0479
     52 H          -2.1908   -1.2489   -1.3276 H       1  UNL11       0.0480
     53 H          -2.2609   -0.3702   -2.9099 H       1  UNL11       0.0480
@<TRIPOS>BOND
     1     1     2    2
     2     2     3    1
     3     2    15   am
     4     3     4    1
     5     3    32    1
     6     3    33    1
     7     4     5    2
     8     5     6    1
     9     6     7   am
    10     6    34    1
    11     7     8    2
    12     7     9    1
    13     9    10   ar
    14    10    11   ar
    15    10    35    1
    16    11    12   ar
    17    11    36    1
    18    12    13   ar
    19    12    37    1
    20    13    14   ar
    21    13    38    1
    22    14     4    1
    23    14     9   ar
    24    15    16    1
    25    15    39    1
    26    16    17    1
    27    16    40    1
    28    16    41    1
    29    17    18    2
    30    17    19   am
    31    19    20    1
    32    20    21    1
    33    20    42    1
    34    20    43    1
    35    21    22    1
    36    21    44    1
    37    21    45    1
    38    22    23    1
    39    22    30    1
    40    23    24   ar
    41    24    25   ar
    42    24    46    1
    43    25    26   ar
    44    25    47    1
    45    26    27    1
    46    26    28   ar
    47    28    29   ar
    48    28    48    1
    49    29    23   ar
    50    29    49    1
    51    30    31    1
    52    30    50    1
    53    30    51    1
    54    31    19    1
    55    31    52    1
    56    31    53    1
@<TRIPOS>MOLECULE
*****
 53 56 0 0 0
SMALL
GASTEIGER

@<TRIPOS>ATOM
      1 O          -1.5876   -1.9291   -2.8990 O.2     1  UNL11      -0.2754
      2 C          -0.7121   -2.3103   -2.0850 C.2     1  UNL11       0.2195
      3 C          -0.7748   -3.6388   -1.3876 C.3     1  UNL11       0.0725
      4 C          -2.1424   -4.0394   -1.2132 C.2     1  UNL11       0.1237
      5 N          -3.0831   -3.6528   -2.0873 N.2     1  UNL11      -0.0071
      6 N          -4.3474   -4.0156   -1.9412 N.am    1  UNL11      -0.0356
      7 C          -4.7748   -4.7755   -0.9378 C.2     1  UNL11       0.4383
      8 O          -5.9890   -5.1121   -0.8152 O.2     1  UNL11      -0.2116
      9 C          -3.8639   -5.2175    0.0100 C.ar    1  UNL11       0.1004
     10 C          -4.2575   -6.0066    1.0679 C.ar    1  UNL11      -0.0441
     11 C          -3.2923   -6.4064    1.9696 C.ar    1  UNL11      -0.0608
     12 C          -1.9608   -6.0306    1.8251 C.ar    1  UNL11      -0.0611
     13 C          -1.5890   -5.2400    0.7579 C.ar    1  UNL11      -0.0518
     14 C          -2.5348   -4.8287   -0.1547 C.ar    1  UNL11       0.0194
     15 N           0.3739   -1.4273   -1.8306 N.am    1  UNL11      -0.3064
     16 C           0.4920   -0.1359   -2.4689 C.3     1  UNL11       0.0883
     17 C          -0.1777    0.8756   -1.6345 C.2     1  UNL11       0.2328
     18 O           0.5022    1.8364   -1.1914 O.2     1  UNL11      -0.2739
     19 N          -1.5797    0.7907   -1.3173 N.am    1  UNL11      -0.2972
     20 C          -2.1811    1.8165   -0.4939 C.3     1  UNL11       0.0305
     21 C          -3.0681    1.0832    0.5238 C.3     1  UNL11       0.0280
     22 N          -4.0987    0.3761   -0.2145 N.pl3   1  UNL11      -0.3269
     23 C          -5.3247    0.0488    0.4220 C.ar    1  UNL11       0.0299
     24 C          -5.4396   -0.1942    1.7730 C.ar    1  UNL11      -0.0379
     25 C          -6.6514   -0.5051    2.3670 C.ar    1  UNL11      -0.0247
     26 C          -7.8054   -0.5849    1.6208 C.ar    1  UNL11       0.1235
     27 F          -9.0086   -0.8927    2.2024 F       1  UNL11      -0.2055
     28 C          -7.7229   -0.3468    0.2653 C.ar    1  UNL11      -0.0247
     29 C          -6.4985   -0.0357   -0.3161 C.ar    1  UNL11      -0.0379
     30 C          -3.8803   -0.0027   -1.5953 C.3     1  UNL11       0.0280
     31 C          -2.3843   -0.2837   -1.7992 C.3     1  UNL11       0.0305
     32 H          -0.3049   -3.4657   -0.3960 H       1  UNL11       0.0424
     33 H          -0.1003   -4.2945   -1.9337 H       1  UNL11       0.0424
     34 H          -5.0358   -3.6826   -2.6560 H       1  UNL11       0.4829
     35 H          -5.2974   -6.2745    1.1423 H       1  UNL11       0.0627
     36 H          -3.6036   -7.0184    2.7885 H       1  UNL11       0.0618
     37 H          -1.2257   -6.3563    2.5433 H       1  UNL11       0.0618
     38 H          -0.5622   -4.9202    0.6018 H       1  UNL11       0.0624
     39 H           1.1289   -1.7079   -1.1554 H       1  UNL11       0.1492
     40 H          -0.0286   -0.1203   -3.4617 H       1  UNL11       0.0558
     41 H           1.5513    0.1045   -2.6753 H       1  UNL11       0.0558
     42 H          -1.4350    2.4243    0.0324 H       1  UNL11       0.0480
     43 H          -2.8818    2.4337   -1.0941 H       1  UNL11       0.0480
     44 H          -2.4186    0.3275    1.0056 H       1  UNL11       0.0479
     45 H          -3.4822    1.8327    1.2332 H       1  UNL11       0.0479
     46 H          -4.5262   -0.1355    2.3747 H       1  UNL11       0.0637
     47 H          -6.7081   -0.6889    3.4208 H       1  UNL11       0.0647
     48 H          -8.6188   -0.4096   -0.3092 H       1  UNL11       0.0647
     49 H          -6.4529    0.1485   -1.3704 H       1  UNL11       0.0637
     50 H          -4.1608    0.8663   -2.2269 H       1  UNL11       0.0479
     51 H          -4.4182   -0.9236   -1.8851 H       1  UNL11       0.0479
     52 H          -2.1908   -1.2489   -1.3276 H       1  UNL11       0.0480
     53 H          -2.2609   -0.3702   -2.9099 H       1  UNL11       0.0480
@<TRIPOS>BOND
     1     1     2    2
     2     2     3    1
     3     2    15   am
     4     3     4    1
     5     3    32    1
     6     3    33    1
     7     4     5    2
     8     5     6    1
     9     6     7   am
    10     6    34    1
    11     7     8    2
    12     7     9    1
    13     9    10   ar
    14    10    11   ar
    15    10    35    1
    16    11    12   ar
    17    11    36    1
    18    12    13   ar
    19    12    37    1
    20    13    14   ar
    21    13    38    1
    22    14     4    1
    23    14     9   ar
    24    15    16    1
    25    15    39    1
    26    16    17    1
    27    16    40    1
    28    16    41    1
    29    17    18    2
    30    17    19   am
    31    19    20    1
    32    20    21    1
    33    20    42    1
    34    20    43    1
    35    21    22    1
    36    21    44    1
    37    21    45    1
    38    22    23    1
    39    22    30    1
    40    23    24   ar
    41    24    25   ar
    42    24    46    1
    43    25    26   ar
    44    25    47    1
    45    26    27    1
    46    26    28   ar
    47    28    29   ar
    48    28    48    1
    49    29    23   ar
    50    29    49    1
    51    30    31    1
    52    30    50    1
    53    30    51    1
    54    31    19    1
    55    31    52    1
    56    31    53    1
@<TRIPOS>MOLECULE
*****
 53 56 0 0 0
SMALL
GASTEIGER

@<TRIPOS>ATOM
      1 O           1.1166    0.4979    0.1642 O.2     1  UNL11      -0.2754
      2 C           1.8235   -0.4012   -0.3518 C.2     1  UNL11       0.2195
      3 C           2.9307   -1.0913    0.3920 C.3     1  UNL11       0.0725
      4 C           3.9622   -1.4933   -0.5219 C.2     1  UNL11       0.1237
      5 N           4.2948   -2.7863   -0.6491 N.2     1  UNL11      -0.0071
      6 N           5.2419   -3.1727   -1.4887 N.am    1  UNL11      -0.0356
      7 C           5.9235   -2.3274   -2.2555 C.2     1  UNL11       0.4383
      8 O           6.8264   -2.7166   -3.0528 O.2     1  UNL11      -0.2116
      9 C           5.6399   -0.9717   -2.1836 C.ar    1  UNL11       0.1004
     10 C           6.3182   -0.0564   -2.9573 C.ar    1  UNL11      -0.0441
     11 C           5.9789    1.2752   -2.8292 C.ar    1  UNL11      -0.0608
     12 C           4.9849    1.6917   -1.9497 C.ar    1  UNL11      -0.0611
     13 C           4.3184    0.7576   -1.1845 C.ar    1  UNL11      -0.0518
     14 C           4.6399   -0.5769   -1.2953 C.ar    1  UNL11       0.0194
     15 N           1.5430   -0.7619   -1.6990 N.am    1  UNL11      -0.3064
     16 C           0.4920   -0.1359   -2.4689 C.3     1  UNL11       0.0883
     17 C          -0.1777    0.8756   -1.6345 C.2     1  UNL11       0.2328
     18 O           0.5022    1.8364   -1.1914 O.2     1  UNL11      -0.2739
     19 N          -1.5797    0.7907   -1.3173 N.am    1  UNL11      -0.2972
     20 C          -2.3506   -0.3266   -1.8167 C.3     1  UNL11       0.0305
     21 C          -3.6674    0.2635   -2.3441 C.3     1  UNL11       0.0280
     22 N          -4.3576    0.8781   -1.2248 N.pl3   1  UNL11      -0.3269
     23 C          -5.7672    1.0415   -1.2682 C.ar    1  UNL11       0.0299
     24 C          -6.4773    1.2187   -2.4352 C.ar    1  UNL11      -0.0379
     25 C          -7.8539    1.3689   -2.4465 C.ar    1  UNL11      -0.0247
     26 C          -8.5778    1.3472   -1.2758 C.ar    1  UNL11       0.1235
     27 F          -9.9410    1.4959   -1.2797 F       1  UNL11      -0.2055
     28 C          -7.8954    1.1715   -0.0907 C.ar    1  UNL11      -0.0247
     29 C          -6.5128    1.0219   -0.0963 C.ar    1  UNL11      -0.0379
     30 C          -3.6153    1.3312   -0.0667 C.3     1  UNL11       0.0280
     31 C          -2.2206    1.7857   -0.5215 C.3     1  UNL11       0.0305
     32 H           2.4578   -1.9895    0.8433 H       1  UNL11       0.0424
     33 H           3.1882   -0.4345    1.2200 H       1  UNL11       0.0424
     34 H           5.4568   -4.1957   -1.5438 H       1  UNL11       0.4829
     35 H           7.0799   -0.4209   -3.6248 H       1  UNL11       0.0627
     36 H           6.5087    1.9809   -3.4319 H       1  UNL11       0.0618
     37 H           4.7382    2.7381   -1.8682 H       1  UNL11       0.0618
     38 H           3.5350    1.0331   -0.4836 H       1  UNL11       0.0624
     39 H           2.1115   -1.5105   -2.1692 H       1  UNL11       0.1492
     40 H          -0.2977   -0.8757   -2.7619 H       1  UNL11       0.0558
     41 H           0.8904    0.2765   -3.4143 H       1  UNL11       0.0558
     42 H          -1.8360   -0.8665   -2.6209 H       1  UNL11       0.0480
     43 H          -2.6489   -0.9952   -0.9823 H       1  UNL11       0.0480
     44 H          -3.3805    1.0684   -3.0476 H       1  UNL11       0.0479
     45 H          -4.2541   -0.5541   -2.8172 H       1  UNL11       0.0479
     46 H          -5.9096    1.2399   -3.3718 H       1  UNL11       0.0637
     47 H          -8.3776    1.5051   -3.3710 H       1  UNL11       0.0647
     48 H          -8.4594    1.1553    0.8138 H       1  UNL11       0.0647
     49 H          -5.9988    0.8842    0.8335 H       1  UNL11       0.0637
     50 H          -3.4940    0.4608    0.6120 H       1  UNL11       0.0479
     51 H          -4.0813    2.1963    0.4389 H       1  UNL11       0.0479
     52 H          -2.3625    2.7479   -1.0169 H       1  UNL11       0.0480
     53 H          -1.6445    1.9276    0.4295 H       1  UNL11       0.0480
@<TRIPOS>BOND
     1     1     2    2
     2     2     3    1
     3     2    15   am
     4     3     4    1
     5     3    32    1
     6     3    33    1
     7     4     5    2
     8     5     6    1
     9     6     7   am
    10     6    34    1
    11     7     8    2
    12     7     9    1
    13     9    10   ar
    14    10    11   ar
    15    10    35    1
    16    11    12   ar
    17    11    36    1
    18    12    13   ar
    19    12    37    1
    20    13    14   ar
    21    13    38    1
    22    14     4    1
    23    14     9   ar
    24    15    16    1
    25    15    39    1
    26    16    17    1
    27    16    40    1
    28    16    41    1
    29    17    18    2
    30    17    19   am
    31    19    20    1
    32    20    21    1
    33    20    42    1
    34    20    43    1
    35    21    22    1
    36    21    44    1
    37    21    45    1
    38    22    23    1
    39    22    30    1
    40    23    24   ar
    41    24    25   ar
    42    24    46    1
    43    25    26   ar
    44    25    47    1
    45    26    27    1
    46    26    28   ar
    47    28    29   ar
    48    28    48    1
    49    29    23   ar
    50    29    49    1
    51    30    31    1
    52    30    50    1
    53    30    51    1
    54    31    19    1
    55    31    52    1
    56    31    53    1
@<TRIPOS>MOLECULE
*****
 53 56 0 0 0
SMALL
GASTEIGER

@<TRIPOS>ATOM
      1 O           3.9914   -0.1722   -3.4213 O.2     1  UNL11      -0.2754
      2 C           2.7992   -0.5607   -3.3754 C.2     1  UNL11       0.2195
      3 C           2.3182   -1.7924   -4.0872 C.3     1  UNL11       0.0725
      4 C           1.2922   -1.4473   -5.0301 C.2     1  UNL11       0.1237
      5 N           1.1304   -2.1612   -6.1539 N.2     1  UNL11      -0.0071
      6 N           0.1880   -1.8567   -7.0316 N.am    1  UNL11      -0.0356
      7 C          -0.6544   -0.8410   -6.8716 C.2     1  UNL11       0.4383
      8 O          -1.5498   -0.5655   -7.7229 O.2     1  UNL11      -0.2116
      9 C          -0.5534   -0.0527   -5.7349 C.ar    1  UNL11       0.1004
     10 C          -1.4025    1.0108   -5.5235 C.ar    1  UNL11      -0.0441
     11 C          -1.2392    1.7478   -4.3682 C.ar    1  UNL11      -0.0608
     12 C          -0.2518    1.4362   -3.4393 C.ar    1  UNL11      -0.0611
     13 C           0.5875    0.3666   -3.6715 C.ar    1  UNL11      -0.0518
     14 C           0.4435   -0.3834   -4.8175 C.ar    1  UNL11       0.0194
     15 N           1.8865    0.2171   -2.6101 N.am    1  UNL11      -0.3064
     16 C           0.4920   -0.1359   -2.4689 C.3     1  UNL11       0.0883
     17 C          -0.1777    0.8756   -1.6345 C.2     1  UNL11       0.2328
     18 O           0.5022    1.8364   -1.1914 O.2     1  UNL11      -0.2739
     19 N          -1.5797    0.7907   -1.3173 N.am    1  UNL11      -0.2972
     20 C          -2.3506   -0.3266   -1.8167 C.3     1  UNL11       0.0305
     21 C          -3.6674    0.2635   -2.3441 C.3     1  UNL11       0.0280
     22 N          -4.3576    0.8781   -1.2248 N.pl3   1  UNL11      -0.3269
     23 C          -5.7672    1.0415   -1.2682 C.ar    1  UNL11       0.0299
     24 C          -6.5700    1.0255   -0.1489 C.ar    1  UNL11      -0.0379
     25 C          -7.9426    1.1943   -0.2220 C.ar    1  UNL11      -0.0247
     26 C          -8.5683    1.3873   -1.4329 C.ar    1  UNL11       0.1235
     27 F          -9.9270    1.5546   -1.5126 F       1  UNL11      -0.2055
     28 C          -7.7917    1.4083   -2.5718 C.ar    1  UNL11      -0.0247
     29 C          -6.4144    1.2374   -2.4816 C.ar    1  UNL11      -0.0379
     30 C          -3.6153    1.3312   -0.0667 C.3     1  UNL11       0.0280
     31 C          -2.2206    1.7857   -0.5215 C.3     1  UNL11       0.0305
     32 H           1.8932   -2.4382   -3.2894 H       1  UNL11       0.0424
     33 H           3.2122   -2.2986   -4.4445 H       1  UNL11       0.0424
     34 H           0.1109   -2.4511   -7.8899 H       1  UNL11       0.4829
     35 H          -2.1526    1.2174   -6.2673 H       1  UNL11       0.0627
     36 H          -1.9008    2.5720   -4.2096 H       1  UNL11       0.0618
     37 H          -0.1448    2.0276   -2.5443 H       1  UNL11       0.0618
     38 H           1.3736    0.0835   -2.9767 H       1  UNL11       0.0624
     39 H           2.2211    1.0854   -2.1213 H       1  UNL11       0.1492
     40 H           0.3689   -1.1150   -1.9368 H       1  UNL11       0.0558
     41 H           0.0174   -0.2644   -3.4593 H       1  UNL11       0.0558
     42 H          -1.8360   -0.8665   -2.6209 H       1  UNL11       0.0480
     43 H          -2.6489   -0.9952   -0.9823 H       1  UNL11       0.0480
     44 H          -3.3805    1.0684   -3.0476 H       1  UNL11       0.0479
     45 H          -4.2541   -0.5541   -2.8172 H       1  UNL11       0.0479
     46 H          -6.0813    0.8700    0.8191 H       1  UNL11       0.0637
     47 H          -8.5398    1.1769    0.6671 H       1  UNL11       0.0647
     48 H          -8.2799    1.5579   -3.5077 H       1  UNL11       0.0647
     49 H          -5.8259    1.2586   -3.3764 H       1  UNL11       0.0637
     50 H          -3.4940    0.4608    0.6120 H       1  UNL11       0.0479
     51 H          -4.0813    2.1963    0.4389 H       1  UNL11       0.0479
     52 H          -2.3625    2.7479   -1.0169 H       1  UNL11       0.0480
     53 H          -1.6445    1.9276    0.4295 H       1  UNL11       0.0480
@<TRIPOS>BOND
     1     1     2    2
     2     2     3    1
     3     2    15   am
     4     3     4    1
     5     3    32    1
     6     3    33    1
     7     4     5    2
     8     5     6    1
     9     6     7   am
    10     6    34    1
    11     7     8    2
    12     7     9    1
    13     9    10   ar
    14    10    11   ar
    15    10    35    1
    16    11    12   ar
    17    11    36    1
    18    12    13   ar
    19    12    37    1
    20    13    14   ar
    21    13    38    1
    22    14     4    1
    23    14     9   ar
    24    15    16    1
    25    15    39    1
    26    16    17    1
    27    16    40    1
    28    16    41    1
    29    17    18    2
    30    17    19   am
    31    19    20    1
    32    20    21    1
    33    20    42    1
    34    20    43    1
    35    21    22    1
    36    21    44    1
    37    21    45    1
    38    22    23    1
    39    22    30    1
    40    23    24   ar
    41    24    25   ar
    42    24    46    1
    43    25    26   ar
    44    25    47    1
    45    26    27    1
    46    26    28   ar
    47    28    29   ar
    48    28    48    1
    49    29    23   ar
    50    29    49    1
    51    30    31    1
    52    30    50    1
    53    30    51    1
    54    31    19    1
    55    31    52    1
    56    31    53    1
@<TRIPOS>MOLECULE
*****
 53 56 0 0 0
SMALL
GASTEIGER

@<TRIPOS>ATOM
      1 O          -1.5259   -0.6578   -5.4371 O.2     1  UNL11      -0.2754
      2 C          -0.6631   -0.1184   -4.7029 C.2     1  UNL11       0.2195
      3 C           0.1442    1.0711   -5.1373 C.3     1  UNL11       0.0725
      4 C          -0.5294    2.2844   -4.7698 C.2     1  UNL11       0.1237
      5 N           0.1694    3.3923   -4.4821 N.2     1  UNL11      -0.0071
      6 N          -0.4373    4.5188   -4.1438 N.am    1  UNL11      -0.0356
      7 C          -1.7588    4.6378   -4.0643 C.2     1  UNL11       0.4383
      8 O          -2.3207    5.7244   -3.7388 O.2     1  UNL11      -0.2116
      9 C          -2.5541    3.5372   -4.3466 C.ar    1  UNL11       0.1004
     10 C          -3.9277    3.6100   -4.2781 C.ar    1  UNL11      -0.0441
     11 C          -4.6503    2.4719   -4.5734 C.ar    1  UNL11      -0.0608
     12 C          -4.0224    1.2830   -4.9300 C.ar    1  UNL11      -0.0611
     13 C          -2.6454    1.2329   -4.9923 C.ar    1  UNL11      -0.0518
     14 C          -1.9033    2.3560   -4.7018 C.ar    1  UNL11       0.0194
     15 N          -0.4617   -0.6774   -3.4104 N.am    1  UNL11      -0.3064
     16 C           0.4920   -0.1359   -2.4689 C.3     1  UNL11       0.0883
     17 C          -0.1777    0.8756   -1.6345 C.2     1  UNL11       0.2328
     18 O           0.5022    1.8364   -1.1914 O.2     1  UNL11      -0.2739
     19 N          -1.5797    0.7907   -1.3173 N.am    1  UNL11      -0.2972
     20 C          -2.3506   -0.3266   -1.8167 C.3     1  UNL11       0.0305
     21 C          -3.6674    0.2635   -2.3441 C.3     1  UNL11       0.0280
     22 N          -4.3576    0.8781   -1.2248 N.pl3   1  UNL11      -0.3269
     23 C          -5.7672    1.0415   -1.2682 C.ar    1  UNL11       0.0299
     24 C          -6.5700    1.0255   -0.1489 C.ar    1  UNL11      -0.0379
     25 C          -7.9426    1.1943   -0.2220 C.ar    1  UNL11      -0.0247
     26 C          -8.5683    1.3873   -1.4329 C.ar    1  UNL11       0.1235
     27 F          -9.9270    1.5546   -1.5126 F       1  UNL11      -0.2055
     28 C          -7.7917    1.4083   -2.5718 C.ar    1  UNL11      -0.0247
     29 C          -6.4144    1.2374   -2.4816 C.ar    1  UNL11      -0.0379
     30 C          -3.6153    1.3312   -0.0667 C.3     1  UNL11       0.0280
     31 C          -2.2206    1.7857   -0.5215 C.3     1  UNL11       0.0305
     32 H           0.1994    0.9926   -6.2440 H       1  UNL11       0.0424
     33 H           1.1530    0.8973   -4.7691 H       1  UNL11       0.0424
     34 H           0.1621    5.3501   -3.9307 H       1  UNL11       0.4829
     35 H          -4.3731    4.5491   -3.9983 H       1  UNL11       0.0627
     36 H          -5.7157    2.5343   -4.5185 H       1  UNL11       0.0618
     37 H          -4.6096    0.4076   -5.1563 H       1  UNL11       0.0618
     38 H          -2.1088    0.3283   -5.2656 H       1  UNL11       0.0624
     39 H          -1.0190   -1.5168   -3.1110 H       1  UNL11       0.1492
     40 H           1.3303    0.3928   -2.9930 H       1  UNL11       0.0558
     41 H           0.9620   -0.9436   -1.8778 H       1  UNL11       0.0558
     42 H          -1.8360   -0.8665   -2.6209 H       1  UNL11       0.0480
     43 H          -2.6489   -0.9952   -0.9823 H       1  UNL11       0.0480
     44 H          -3.3805    1.0684   -3.0476 H       1  UNL11       0.0479
     45 H          -4.2541   -0.5541   -2.8172 H       1  UNL11       0.0479
     46 H          -6.0813    0.8700    0.8191 H       1  UNL11       0.0637
     47 H          -8.5398    1.1769    0.6671 H       1  UNL11       0.0647
     48 H          -8.2799    1.5579   -3.5077 H       1  UNL11       0.0647
     49 H          -5.8259    1.2586   -3.3764 H       1  UNL11       0.0637
     50 H          -3.4940    0.4608    0.6120 H       1  UNL11       0.0479
     51 H          -4.0813    2.1963    0.4389 H       1  UNL11       0.0479
     52 H          -2.3625    2.7479   -1.0169 H       1  UNL11       0.0480
     53 H          -1.6445    1.9276    0.4295 H       1  UNL11       0.0480
@<TRIPOS>BOND
     1     1     2    2
     2     2     3    1
     3     2    15   am
     4     3     4    1
     5     3    32    1
     6     3    33    1
     7     4     5    2
     8     5     6    1
     9     6     7   am
    10     6    34    1
    11     7     8    2
    12     7     9    1
    13     9    10   ar
    14    10    11   ar
    15    10    35    1
    16    11    12   ar
    17    11    36    1
    18    12    13   ar
    19    12    37    1
    20    13    14   ar
    21    13    38    1
    22    14     4    1
    23    14     9   ar
    24    15    16    1
    25    15    39    1
    26    16    17    1
    27    16    40    1
    28    16    41    1
    29    17    18    2
    30    17    19   am
    31    19    20    1
    32    20    21    1
    33    20    42    1
    34    20    43    1
    35    21    22    1
    36    21    44    1
    37    21    45    1
    38    22    23    1
    39    22    30    1
    40    23    24   ar
    41    24    25   ar
    42    24    46    1
    43    25    26   ar
    44    25    47    1
    45    26    27    1
    46    26    28   ar
    47    28    29   ar
    48    28    48    1
    49    29    23   ar
    50    29    49    1
    51    30    31    1
    52    30    50    1
    53    30    51    1
    54    31    19    1
    55    31    52    1
    56    31    53    1
@<TRIPOS>MOLECULE
*****
 53 56 0 0 0
SMALL
GASTEIGER

@<TRIPOS>ATOM
      1 O           2.4441    1.5744   -5.0024 O.2     1  UNL11      -0.2754
      2 C           1.4267    1.0712   -4.4675 C.2     1  UNL11       0.2195
      3 C           0.0789    1.0668   -5.1299 C.3     1  UNL11       0.0725
      4 C          -0.3767   -0.2825   -5.3106 C.2     1  UNL11       0.1237
      5 N          -0.6369   -0.7559   -6.5381 N.2     1  UNL11      -0.0071
      6 N          -1.0555   -1.9980   -6.7211 N.am    1  UNL11      -0.0356
      7 C          -1.2469   -2.8555   -5.7236 C.2     1  UNL11       0.4383
      8 O          -1.6479   -4.0402   -5.9188 O.2     1  UNL11      -0.2116
      9 C          -1.0002   -2.4436   -4.4224 C.ar    1  UNL11       0.1004
     10 C          -1.1835   -3.2946   -3.3552 C.ar    1  UNL11      -0.0441
     11 C          -0.9168   -2.8111   -2.0904 C.ar    1  UNL11      -0.0608
     12 C          -0.4764   -1.5073   -1.8873 C.ar    1  UNL11      -0.0611
     13 C          -0.2997   -0.6723   -2.9708 C.ar    1  UNL11      -0.0518
     14 C          -0.5595   -1.1327   -4.2424 C.ar    1  UNL11       0.0194
     15 N           1.5851    0.4876   -3.1799 N.am    1  UNL11      -0.3064
     16 C           0.4920   -0.1359   -2.4689 C.3     1  UNL11       0.0883
     17 C          -0.1777    0.8756   -1.6345 C.2     1  UNL11       0.2328
     18 O           0.5022    1.8364   -1.1914 O.2     1  UNL11      -0.2739
     19 N          -1.5797    0.7907   -1.3173 N.am    1  UNL11      -0.2972
     20 C          -2.1811    1.8165   -0.4939 C.3     1  UNL11       0.0305
     21 C          -3.0681    1.0832    0.5238 C.3     1  UNL11       0.0280
     22 N          -4.0987    0.3761   -0.2145 N.pl3   1  UNL11      -0.3269
     23 C          -5.3247    0.0488    0.4220 C.ar    1  UNL11       0.0299
     24 C          -6.0777   -1.0586    0.0995 C.ar    1  UNL11      -0.0379
     25 C          -7.2674   -1.3557    0.7431 C.ar    1  UNL11      -0.0247
     26 C          -7.7518   -0.5449    1.7446 C.ar    1  UNL11       0.1235
     27 F          -8.9294   -0.8329    2.3857 F       1  UNL11      -0.2055
     28 C          -7.0206    0.5716    2.0903 C.ar    1  UNL11      -0.0247
     29 C          -5.8276    0.8560    1.4345 C.ar    1  UNL11      -0.0379
     30 C          -3.8803   -0.0027   -1.5953 C.3     1  UNL11       0.0280
     31 C          -2.3843   -0.2837   -1.7992 C.3     1  UNL11       0.0305
     32 H           0.2433    1.5434   -6.1198 H       1  UNL11       0.0424
     33 H          -0.5367    1.7576   -4.5580 H       1  UNL11       0.0424
     34 H          -1.2419   -2.3099   -7.7028 H       1  UNL11       0.4829
     35 H          -1.5253   -4.2952   -3.5564 H       1  UNL11       0.0627
     36 H          -1.0609   -3.4758   -1.2661 H       1  UNL11       0.0618
     37 H          -0.2748   -1.1535   -0.8891 H       1  UNL11       0.0618
     38 H           0.0421    0.3536   -2.8639 H       1  UNL11       0.0624
     39 H           2.5261    0.5009   -2.7119 H       1  UNL11       0.1492
     40 H           0.8591   -0.9299   -1.7677 H       1  UNL11       0.0558
     41 H          -0.1952   -0.6424   -3.1716 H       1  UNL11       0.0558
     42 H          -1.4350    2.4243    0.0324 H       1  UNL11       0.0480
     43 H          -2.8818    2.4337   -1.0941 H       1  UNL11       0.0480
     44 H          -2.4186    0.3275    1.0056 H       1  UNL11       0.0479
     45 H          -3.4822    1.8327    1.2332 H       1  UNL11       0.0479
     46 H          -5.7016   -1.7085   -0.6980 H       1  UNL11       0.0637
     47 H          -7.8304   -2.2249    0.4693 H       1  UNL11       0.0647
     48 H          -7.3990    1.1971    2.8663 H       1  UNL11       0.0647
     49 H          -5.2711    1.7266    1.7173 H       1  UNL11       0.0637
     50 H          -4.1608    0.8663   -2.2269 H       1  UNL11       0.0479
     51 H          -4.4182   -0.9236   -1.8851 H       1  UNL11       0.0479
     52 H          -2.1908   -1.2489   -1.3276 H       1  UNL11       0.0480
     53 H          -2.2609   -0.3702   -2.9099 H       1  UNL11       0.0480
@<TRIPOS>BOND
     1     1     2    2
     2     2     3    1
     3     2    15   am
     4     3     4    1
     5     3    32    1
     6     3    33    1
     7     4     5    2
     8     5     6    1
     9     6     7   am
    10     6    34    1
    11     7     8    2
    12     7     9    1
    13     9    10   ar
    14    10    11   ar
    15    10    35    1
    16    11    12   ar
    17    11    36    1
    18    12    13   ar
    19    12    37    1
    20    13    14   ar
    21    13    38    1
    22    14     4    1
    23    14     9   ar
    24    15    16    1
    25    15    39    1
    26    16    17    1
    27    16    40    1
    28    16    41    1
    29    17    18    2
    30    17    19   am
    31    19    20    1
    32    20    21    1
    33    20    42    1
    34    20    43    1
    35    21    22    1
    36    21    44    1
    37    21    45    1
    38    22    23    1
    39    22    30    1
    40    23    24   ar
    41    24    25   ar
    42    24    46    1
    43    25    26   ar
    44    25    47    1
    45    26    27    1
    46    26    28   ar
    47    28    29   ar
    48    28    48    1
    49    29    23   ar
    50    29    49    1
    51    30    31    1
    52    30    50    1
    53    30    51    1
    54    31    19    1
    55    31    52    1
    56    31    53    1
@<TRIPOS>MOLECULE
*****
 53 56 0 0 0
SMALL
GASTEIGER

@<TRIPOS>ATOM
      1 O           0.6548   -2.8453   -1.8707 O.2     1  UNL11      -0.2754
      2 C          -0.3479   -2.5053   -2.5440 C.2     1  UNL11       0.2195
      3 C          -1.3910   -3.4852   -2.9992 C.3     1  UNL11       0.0725
      4 C          -2.0052   -4.1135   -1.8639 C.2     1  UNL11       0.1237
      5 N          -1.6237   -3.7945   -0.6184 N.2     1  UNL11      -0.0071
      6 N          -2.1818   -4.3634    0.4381 N.am    1  UNL11      -0.0356
      7 C          -3.1438   -5.2764    0.3495 C.2     1  UNL11       0.4383
      8 O          -3.6655   -5.8094    1.3723 O.2     1  UNL11      -0.2116
      9 C          -3.5954   -5.6619   -0.9039 C.ar    1  UNL11       0.1004
     10 C          -4.5898   -6.6038   -1.0481 C.ar    1  UNL11      -0.0441
     11 C          -4.9851   -6.9348   -2.3282 C.ar    1  UNL11      -0.0608
     12 C          -4.4050   -6.3427   -3.4453 C.ar    1  UNL11      -0.0611
     13 C          -3.4107   -5.4017   -3.2774 C.ar    1  UNL11      -0.0518
     14 C          -2.9997   -5.0554   -2.0094 C.ar    1  UNL11       0.0194
     15 N          -0.4769   -1.1281   -2.8762 N.am    1  UNL11      -0.3064
     16 C           0.4920   -0.1359   -2.4689 C.3     1  UNL11       0.0883
     17 C          -0.1777    0.8756   -1.6345 C.2     1  UNL11       0.2328
     18 O           0.5022    1.8364   -1.1914 O.2     1  UNL11      -0.2739
     19 N          -1.5797    0.7907   -1.3173 N.am    1  UNL11      -0.2972
     20 C          -2.1811    1.8165   -0.4939 C.3     1  UNL11       0.0305
     21 C          -3.0681    1.0832    0.5238 C.3     1  UNL11       0.0280
     22 N          -4.0987    0.3761   -0.2145 N.pl3   1  UNL11      -0.3269
     23 C          -5.3247    0.0488    0.4220 C.ar    1  UNL11       0.0299
     24 C          -5.4396   -0.1942    1.7730 C.ar    1  UNL11      -0.0379
     25 C          -6.6514   -0.5051    2.3670 C.ar    1  UNL11      -0.0247
     26 C          -7.8054   -0.5849    1.6208 C.ar    1  UNL11       0.1235
     27 F          -9.0086   -0.8927    2.2024 F       1  UNL11      -0.2055
     28 C          -7.7229   -0.3468    0.2653 C.ar    1  UNL11      -0.0247
     29 C          -6.4985   -0.0357   -0.3161 C.ar    1  UNL11      -0.0379
     30 C          -3.8803   -0.0027   -1.5953 C.3     1  UNL11       0.0280
     31 C          -2.3843   -0.2837   -1.7992 C.3     1  UNL11       0.0305
     32 H          -0.8351   -4.2424   -3.5923 H       1  UNL11       0.0424
     33 H          -2.0186   -2.9462   -3.7055 H       1  UNL11       0.0424
     34 H          -1.8417   -4.0732    1.3846 H       1  UNL11       0.4829
     35 H          -5.0118   -7.0372   -0.1578 H       1  UNL11       0.0627
     36 H          -5.7570   -7.6664   -2.4340 H       1  UNL11       0.0618
     37 H          -4.7318   -6.6185   -4.4350 H       1  UNL11       0.0618
     38 H          -2.9270   -4.9114   -4.1179 H       1  UNL11       0.0624
     39 H          -1.3021   -0.8009   -3.4391 H       1  UNL11       0.1492
     40 H           0.9130    0.4123   -3.3515 H       1  UNL11       0.0558
     41 H           1.3535   -0.6121   -1.9654 H       1  UNL11       0.0558
     42 H          -1.4350    2.4243    0.0324 H       1  UNL11       0.0480
     43 H          -2.8818    2.4337   -1.0941 H       1  UNL11       0.0480
     44 H          -2.4186    0.3275    1.0056 H       1  UNL11       0.0479
     45 H          -3.4822    1.8327    1.2332 H       1  UNL11       0.0479
     46 H          -4.5262   -0.1355    2.3747 H       1  UNL11       0.0637
     47 H          -6.7081   -0.6889    3.4208 H       1  UNL11       0.0647
     48 H          -8.6188   -0.4096   -0.3092 H       1  UNL11       0.0647
     49 H          -6.4529    0.1485   -1.3704 H       1  UNL11       0.0637
     50 H          -4.1608    0.8663   -2.2269 H       1  UNL11       0.0479
     51 H          -4.4182   -0.9236   -1.8851 H       1  UNL11       0.0479
     52 H          -2.1908   -1.2489   -1.3276 H       1  UNL11       0.0480
     53 H          -2.2609   -0.3702   -2.9099 H       1  UNL11       0.0480
@<TRIPOS>BOND
     1     1     2    2
     2     2     3    1
     3     2    15   am
     4     3     4    1
     5     3    32    1
     6     3    33    1
     7     4     5    2
     8     5     6    1
     9     6     7   am
    10     6    34    1
    11     7     8    2
    12     7     9    1
    13     9    10   ar
    14    10    11   ar
    15    10    35    1
    16    11    12   ar
    17    11    36    1
    18    12    13   ar
    19    12    37    1
    20    13    14   ar
    21    13    38    1
    22    14     4    1
    23    14     9   ar
    24    15    16    1
    25    15    39    1
    26    16    17    1
    27    16    40    1
    28    16    41    1
    29    17    18    2
    30    17    19   am
    31    19    20    1
    32    20    21    1
    33    20    42    1
    34    20    43    1
    35    21    22    1
    36    21    44    1
    37    21    45    1
    38    22    23    1
    39    22    30    1
    40    23    24   ar
    41    24    25   ar
    42    24    46    1
    43    25    26   ar
    44    25    47    1
    45    26    27    1
    46    26    28   ar
    47    28    29   ar
    48    28    48    1
    49    29    23   ar
    50    29    49    1
    51    30    31    1
    52    30    50    1
    53    30    51    1
    54    31    19    1
    55    31    52    1
    56    31    53    1
@<TRIPOS>MOLECULE
*****
 53 56 0 0 0
SMALL
GASTEIGER

@<TRIPOS>ATOM
      1 O           2.7768   -0.9876   -3.8030 O.2     1  UNL11      -0.2754
      2 C           2.2274    0.0341   -4.2813 C.2     1  UNL11       0.2195
      3 C           2.7591    0.7526   -5.4881 C.3     1  UNL11       0.0725
      4 C           1.9339    1.8883   -5.7884 C.2     1  UNL11       0.1237
      5 N           2.4594    2.9805   -6.3625 N.2     1  UNL11      -0.0071
      6 N           1.7113    4.0344   -6.6473 N.am    1  UNL11      -0.0356
      7 C           0.4081    4.0918   -6.3919 C.2     1  UNL11       0.4383
      8 O          -0.2909    5.1094   -6.6720 O.2     1  UNL11      -0.2116
      9 C          -0.2123    3.0025   -5.7986 C.ar    1  UNL11       0.1004
     10 C          -1.5598    3.0134   -5.5140 C.ar    1  UNL11      -0.0441
     11 C          -2.1042    1.8913   -4.9232 C.ar    1  UNL11      -0.0608
     12 C          -1.3267    0.7785   -4.6197 C.ar    1  UNL11      -0.0611
     13 C           0.0209    0.7894   -4.9136 C.ar    1  UNL11      -0.0518
     14 C           0.5863    1.8980   -5.5033 C.ar    1  UNL11       0.0194
     15 N           1.0537    0.5100   -3.6336 N.am    1  UNL11      -0.3064
     16 C           0.4920   -0.1359   -2.4689 C.3     1  UNL11       0.0883
     17 C          -0.1777    0.8756   -1.6345 C.2     1  UNL11       0.2328
     18 O           0.5022    1.8364   -1.1914 O.2     1  UNL11      -0.2739
     19 N          -1.5797    0.7907   -1.3173 N.am    1  UNL11      -0.2972
     20 C          -2.1811    1.8165   -0.4939 C.3     1  UNL11       0.0305
     21 C          -3.0681    1.0832    0.5238 C.3     1  UNL11       0.0280
     22 N          -4.0987    0.3761   -0.2145 N.pl3   1  UNL11      -0.3269
     23 C          -5.3247    0.0488    0.4220 C.ar    1  UNL11       0.0299
     24 C          -6.0777   -1.0586    0.0995 C.ar    1  UNL11      -0.0379
     25 C          -7.2674   -1.3557    0.7431 C.ar    1  UNL11      -0.0247
     26 C          -7.7518   -0.5449    1.7446 C.ar    1  UNL11       0.1235
     27 F          -8.9294   -0.8329    2.3857 F       1  UNL11      -0.2055
     28 C          -7.0206    0.5716    2.0903 C.ar    1  UNL11      -0.0247
     29 C          -5.8276    0.8560    1.4345 C.ar    1  UNL11      -0.0379
     30 C          -3.8803   -0.0027   -1.5953 C.3     1  UNL11       0.0280
     31 C          -2.3843   -0.2837   -1.7992 C.3     1  UNL11       0.0305
     32 H           2.6953    0.0131   -6.3145 H       1  UNL11       0.0424
     33 H           3.8192    0.9078   -5.2997 H       1  UNL11       0.0424
     34 H           2.1786    4.8571   -7.0952 H       1  UNL11       0.4829
     35 H          -2.1248    3.8944   -5.7652 H       1  UNL11       0.0627
     36 H          -3.1502    1.9055   -4.7045 H       1  UNL11       0.0618
     37 H          -1.7760   -0.0861   -4.1583 H       1  UNL11       0.0618
     38 H           0.6697   -0.0547   -4.6961 H       1  UNL11       0.0624
     39 H           0.5624    1.3631   -4.0020 H       1  UNL11       0.1492
     40 H           1.2906   -0.5937   -1.8290 H       1  UNL11       0.0558
     41 H          -0.1762   -0.9659   -2.7643 H       1  UNL11       0.0558
     42 H          -1.4350    2.4243    0.0324 H       1  UNL11       0.0480
     43 H          -2.8818    2.4337   -1.0941 H       1  UNL11       0.0480
     44 H          -2.4186    0.3275    1.0056 H       1  UNL11       0.0479
     45 H          -3.4822    1.8327    1.2332 H       1  UNL11       0.0479
     46 H          -5.7016   -1.7085   -0.6980 H       1  UNL11       0.0637
     47 H          -7.8304   -2.2249    0.4693 H       1  UNL11       0.0647
     48 H          -7.3990    1.1971    2.8663 H       1  UNL11       0.0647
     49 H          -5.2711    1.7266    1.7173 H       1  UNL11       0.0637
     50 H          -4.1608    0.8663   -2.2269 H       1  UNL11       0.0479
     51 H          -4.4182   -0.9236   -1.8851 H       1  UNL11       0.0479
     52 H          -2.1908   -1.2489   -1.3276 H       1  UNL11       0.0480
     53 H          -2.2609   -0.3702   -2.9099 H       1  UNL11       0.0480
@<TRIPOS>BOND
     1     1     2    2
     2     2     3    1
     3     2    15   am
     4     3     4    1
     5     3    32    1
     6     3    33    1
     7     4     5    2
     8     5     6    1
     9     6     7   am
    10     6    34    1
    11     7     8    2
    12     7     9    1
    13     9    10   ar
    14    10    11   ar
    15    10    35    1
    16    11    12   ar
    17    11    36    1
    18    12    13   ar
    19    12    37    1
    20    13    14   ar
    21    13    38    1
    22    14     4    1
    23    14     9   ar
    24    15    16    1
    25    15    39    1
    26    16    17    1
    27    16    40    1
    28    16    41    1
    29    17    18    2
    30    17    19   am
    31    19    20    1
    32    20    21    1
    33    20    42    1
    34    20    43    1
    35    21    22    1
    36    21    44    1
    37    21    45    1
    38    22    23    1
    39    22    30    1
    40    23    24   ar
    41    24    25   ar
    42    24    46    1
    43    25    26   ar
    44    25    47    1
    45    26    27    1
    46    26    28   ar
    47    28    29   ar
    48    28    48    1
    49    29    23   ar
    50    29    49    1
    51    30    31    1
    52    30    50    1
    53    30    51    1
    54    31    19    1
    55    31    52    1
    56    31    53    1
@<TRIPOS>MOLECULE
*****
 53 56 0 0 0
SMALL
GASTEIGER

@<TRIPOS>ATOM
      1 O          -1.5259   -0.6578   -5.4371 O.2     1  UNL11      -0.2754
      2 C          -0.6631   -0.1184   -4.7029 C.2     1  UNL11       0.2195
      3 C           0.1442    1.0711   -5.1373 C.3     1  UNL11       0.0725
      4 C           0.3223    1.0519   -6.5617 C.2     1  UNL11       0.1237
      5 N           0.4415    2.1969   -7.2497 N.2     1  UNL11      -0.0071
      6 N           0.6081    2.1954   -8.5625 N.am    1  UNL11      -0.0356
      7 C           0.6691    1.0825   -9.2868 C.2     1  UNL11       0.4383
      8 O           0.8290    1.1017  -10.5424 O.2     1  UNL11      -0.2116
      9 C           0.5541   -0.1444   -8.6505 C.ar    1  UNL11       0.1004
     10 C           0.6108   -1.3254   -9.3568 C.ar    1  UNL11      -0.0441
     11 C           0.4884   -2.5057   -8.6523 C.ar    1  UNL11      -0.0608
     12 C           0.3130   -2.5152   -7.2724 C.ar    1  UNL11      -0.0611
     13 C           0.2592   -1.3205   -6.5853 C.ar    1  UNL11      -0.0518
     14 C           0.3789   -0.1299   -7.2670 C.ar    1  UNL11       0.0194
     15 N          -0.4617   -0.6774   -3.4104 N.am    1  UNL11      -0.3064
     16 C           0.4920   -0.1359   -2.4689 C.3     1  UNL11       0.0883
     17 C          -0.1777    0.8756   -1.6345 C.2     1  UNL11       0.2328
     18 O           0.5022    1.8364   -1.1914 O.2     1  UNL11      -0.2739
     19 N          -1.5797    0.7907   -1.3173 N.am    1  UNL11      -0.2972
     20 C          -2.3506   -0.3266   -1.8167 C.3     1  UNL11       0.0305
     21 C          -3.6674    0.2635   -2.3441 C.3     1  UNL11       0.0280
     22 N          -4.3576    0.8781   -1.2248 N.pl3   1  UNL11      -0.3269
     23 C          -5.7672    1.0415   -1.2682 C.ar    1  UNL11       0.0299
     24 C          -6.4773    1.2187   -2.4352 C.ar    1  UNL11      -0.0379
     25 C          -7.8539    1.3689   -2.4465 C.ar    1  UNL11      -0.0247
     26 C          -8.5778    1.3472   -1.2758 C.ar    1  UNL11       0.1235
     27 F          -9.9410    1.4959   -1.2797 F       1  UNL11      -0.2055
     28 C          -7.8954    1.1715   -0.0907 C.ar    1  UNL11      -0.0247
     29 C          -6.5128    1.0219   -0.0963 C.ar    1  UNL11      -0.0379
     30 C          -3.6153    1.3312   -0.0667 C.3     1  UNL11       0.0280
     31 C          -2.2206    1.7857   -0.5215 C.3     1  UNL11       0.0305
     32 H           1.1274    0.9506   -4.6343 H       1  UNL11       0.0424
     33 H          -0.3286    1.9363   -4.6779 H       1  UNL11       0.0424
     34 H           0.6951    3.1209   -9.0438 H       1  UNL11       0.4829
     35 H           0.7477   -1.2733  -10.4231 H       1  UNL11       0.0627
     36 H           0.5330   -3.4190   -9.2057 H       1  UNL11       0.0618
     37 H           0.2201   -3.4509   -6.7451 H       1  UNL11       0.0618
     38 H           0.1235   -1.2756   -5.5080 H       1  UNL11       0.0624
     39 H          -1.0190   -1.5168   -3.1110 H       1  UNL11       0.1492
     40 H           1.3303    0.3928   -2.9930 H       1  UNL11       0.0558
     41 H           0.9620   -0.9436   -1.8778 H       1  UNL11       0.0558
     42 H          -1.8360   -0.8665   -2.6209 H       1  UNL11       0.0480
     43 H          -2.6489   -0.9952   -0.9823 H       1  UNL11       0.0480
     44 H          -3.3805    1.0684   -3.0476 H       1  UNL11       0.0479
     45 H          -4.2541   -0.5541   -2.8172 H       1  UNL11       0.0479
     46 H          -5.9096    1.2399   -3.3718 H       1  UNL11       0.0637
     47 H          -8.3776    1.5051   -3.3710 H       1  UNL11       0.0647
     48 H          -8.4594    1.1553    0.8138 H       1  UNL11       0.0647
     49 H          -5.9988    0.8842    0.8335 H       1  UNL11       0.0637
     50 H          -3.4940    0.4608    0.6120 H       1  UNL11       0.0479
     51 H          -4.0813    2.1963    0.4389 H       1  UNL11       0.0479
     52 H          -2.3625    2.7479   -1.0169 H       1  UNL11       0.0480
     53 H          -1.6445    1.9276    0.4295 H       1  UNL11       0.0480
@<TRIPOS>BOND
     1     1     2    2
     2     2     3    1
     3     2    15   am
     4     3     4    1
     5     3    32    1
     6     3    33    1
     7     4     5    2
     8     5     6    1
     9     6     7   am
    10     6    34    1
    11     7     8    2
    12     7     9    1
    13     9    10   ar
    14    10    11   ar
    15    10    35    1
    16    11    12   ar
    17    11    36    1
    18    12    13   ar
    19    12    37    1
    20    13    14   ar
    21    13    38    1
    22    14     4    1
    23    14     9   ar
    24    15    16    1
    25    15    39    1
    26    16    17    1
    27    16    40    1
    28    16    41    1
    29    17    18    2
    30    17    19   am
    31    19    20    1
    32    20    21    1
    33    20    42    1
    34    20    43    1
    35    21    22    1
    36    21    44    1
    37    21    45    1
    38    22    23    1
    39    22    30    1
    40    23    24   ar
    41    24    25   ar
    42    24    46    1
    43    25    26   ar
    44    25    47    1
    45    26    27    1
    46    26    28   ar
    47    28    29   ar
    48    28    48    1
    49    29    23   ar
    50    29    49    1
    51    30    31    1
    52    30    50    1
    53    30    51    1
    54    31    19    1
    55    31    52    1
    56    31    53    1
@<TRIPOS>MOLECULE
*****
 53 56 0 0 0
SMALL
GASTEIGER

@<TRIPOS>ATOM
      1 O           2.2140    0.4532   -5.6061 O.2     1  UNL11      -0.2754
      2 C           1.7546   -0.2067   -4.6429 C.2     1  UNL11       0.2195
      3 C           1.9181   -1.6950   -4.5264 C.3     1  UNL11       0.0725
      4 C           3.1219   -2.0034   -3.8074 C.2     1  UNL11       0.1237
      5 N           3.9135   -1.0223   -3.3500 N.2     1  UNL11      -0.0071
      6 N           5.0251   -1.2906   -2.6839 N.am    1  UNL11      -0.0356
      7 C           5.4354   -2.5275   -2.4216 C.2     1  UNL11       0.4383
      8 O           6.5023   -2.7639   -1.7826 O.2     1  UNL11      -0.2116
      9 C           4.6726   -3.5993   -2.8607 C.ar    1  UNL11       0.1004
     10 C           5.0553   -4.8991   -2.6141 C.ar    1  UNL11      -0.0441
     11 C           4.2433   -5.9115   -3.0833 C.ar    1  UNL11      -0.0608
     12 C           3.0729   -5.6402   -3.7845 C.ar    1  UNL11      -0.0611
     13 C           2.7089   -4.3309   -4.0200 C.ar    1  UNL11      -0.0518
     14 C           3.5035   -3.3039   -3.5614 C.ar    1  UNL11       0.0194
     15 N           1.0537    0.5100   -3.6336 N.am    1  UNL11      -0.3064
     16 C           0.4920   -0.1359   -2.4689 C.3     1  UNL11       0.0883
     17 C          -0.1777    0.8756   -1.6345 C.2     1  UNL11       0.2328
     18 O           0.5022    1.8364   -1.1914 O.2     1  UNL11      -0.2739
     19 N          -1.5797    0.7907   -1.3173 N.am    1  UNL11      -0.2972
     20 C          -2.1811    1.8165   -0.4939 C.3     1  UNL11       0.0305
     21 C          -3.0681    1.0832    0.5238 C.3     1  UNL11       0.0280
     22 N          -4.0987    0.3761   -0.2145 N.pl3   1  UNL11      -0.3269
     23 C          -5.3247    0.0488    0.4220 C.ar    1  UNL11       0.0299
     24 C          -5.8791    0.7977    1.4365 C.ar    1  UNL11      -0.0379
     25 C          -7.0809    0.4567    2.0343 C.ar    1  UNL11      -0.0247
     26 C          -7.7791   -0.6598    1.6330 C.ar    1  UNL11       0.1235
     27 F          -8.9694   -1.0036    2.2209 F       1  UNL11      -0.2055
     28 C          -7.2499   -1.4301    0.6194 C.ar    1  UNL11      -0.0247
     29 C          -6.0420   -1.0741    0.0293 C.ar    1  UNL11      -0.0379
     30 C          -3.8803   -0.0027   -1.5953 C.3     1  UNL11       0.0280
     31 C          -2.3843   -0.2837   -1.7992 C.3     1  UNL11       0.0305
     32 H           2.0024   -2.0579   -5.5730 H       1  UNL11       0.0424
     33 H           0.9694   -2.0707   -4.1495 H       1  UNL11       0.0424
     34 H           5.6016   -0.4824   -2.3520 H       1  UNL11       0.4829
     35 H           5.9678   -5.0649   -2.0679 H       1  UNL11       0.0627
     36 H           4.5453   -6.9181   -2.8892 H       1  UNL11       0.0618
     37 H           2.4555   -6.4492   -4.1405 H       1  UNL11       0.0618
     38 H           1.8048   -4.0679   -4.5626 H       1  UNL11       0.0624
     39 H           0.9297    1.5501   -3.7211 H       1  UNL11       0.1492
     40 H           1.2906   -0.5937   -1.8290 H       1  UNL11       0.0558
     41 H          -0.1762   -0.9659   -2.7643 H       1  UNL11       0.0558
     42 H          -1.4350    2.4243    0.0324 H       1  UNL11       0.0480
     43 H          -2.8818    2.4337   -1.0941 H       1  UNL11       0.0480
     44 H          -2.4186    0.3275    1.0056 H       1  UNL11       0.0479
     45 H          -3.4822    1.8327    1.2332 H       1  UNL11       0.0479
     46 H          -5.3295    1.6867    1.7644 H       1  UNL11       0.0637
     47 H          -7.4862    1.0598    2.8213 H       1  UNL11       0.0647
     48 H          -7.7934   -2.2940    0.3115 H       1  UNL11       0.0647
     49 H          -5.6463   -1.6828   -0.7585 H       1  UNL11       0.0637
     50 H          -4.1608    0.8663   -2.2269 H       1  UNL11       0.0479
     51 H          -4.4182   -0.9236   -1.8851 H       1  UNL11       0.0479
     52 H          -2.1908   -1.2489   -1.3276 H       1  UNL11       0.0480
     53 H          -2.2609   -0.3702   -2.9099 H       1  UNL11       0.0480
@<TRIPOS>BOND
     1     1     2    2
     2     2     3    1
     3     2    15   am
     4     3     4    1
     5     3    32    1
     6     3    33    1
     7     4     5    2
     8     5     6    1
     9     6     7   am
    10     6    34    1
    11     7     8    2
    12     7     9    1
    13     9    10   ar
    14    10    11   ar
    15    10    35    1
    16    11    12   ar
    17    11    36    1
    18    12    13   ar
    19    12    37    1
    20    13    14   ar
    21    13    38    1
    22    14     4    1
    23    14     9   ar
    24    15    16    1
    25    15    39    1
    26    16    17    1
    27    16    40    1
    28    16    41    1
    29    17    18    2
    30    17    19   am
    31    19    20    1
    32    20    21    1
    33    20    42    1
    34    20    43    1
    35    21    22    1
    36    21    44    1
    37    21    45    1
    38    22    23    1
    39    22    30    1
    40    23    24   ar
    41    24    25   ar
    42    24    46    1
    43    25    26   ar
    44    25    47    1
    45    26    27    1
    46    26    28   ar
    47    28    29   ar
    48    28    48    1
    49    29    23   ar
    50    29    49    1
    51    30    31    1
    52    30    50    1
    53    30    51    1
    54    31    19    1
    55    31    52    1
    56    31    53    1
@<TRIPOS>MOLECULE
*****
 53 56 0 0 0
SMALL
GASTEIGER

@<TRIPOS>ATOM
      1 O           0.5551    2.5308   -3.2498 O.2     1  UNL11      -0.2754
      2 C           1.5691    1.8590   -3.5577 C.2     1  UNL11       0.2195
      3 C           2.7383    2.4450   -4.2959 C.3     1  UNL11       0.0725
      4 C           2.9337    1.7525   -5.5382 C.2     1  UNL11       0.1237
      5 N           4.1599    1.6360   -6.0687 N.2     1  UNL11      -0.0071
      6 N           4.3563    0.9990   -7.2119 N.am    1  UNL11      -0.0356
      7 C           3.3742    0.4367   -7.9093 C.2     1  UNL11       0.4383
      8 O           3.5822   -0.1687   -9.0014 O.2     1  UNL11      -0.2116
      9 C           2.0755    0.5127   -7.4287 C.ar    1  UNL11       0.1004
     10 C           1.0240   -0.0537   -8.1146 C.ar    1  UNL11      -0.0441
     11 C          -0.2394    0.0641   -7.5720 C.ar    1  UNL11      -0.0608
     12 C          -0.4565    0.7316   -6.3710 C.ar    1  UNL11      -0.0611
     13 C           0.6113    1.2913   -5.7010 C.ar    1  UNL11      -0.0518
     14 C           1.8813    1.1864   -6.2232 C.ar    1  UNL11       0.0194
     15 N           1.5851    0.4876   -3.1799 N.am    1  UNL11      -0.3064
     16 C           0.4920   -0.1359   -2.4689 C.3     1  UNL11       0.0883
     17 C          -0.1777    0.8756   -1.6345 C.2     1  UNL11       0.2328
     18 O           0.5022    1.8364   -1.1914 O.2     1  UNL11      -0.2739
     19 N          -1.5797    0.7907   -1.3173 N.am    1  UNL11      -0.2972
     20 C          -2.3506   -0.3266   -1.8167 C.3     1  UNL11       0.0305
     21 C          -3.6674    0.2635   -2.3441 C.3     1  UNL11       0.0280
     22 N          -4.3576    0.8781   -1.2248 N.pl3   1  UNL11      -0.3269
     23 C          -5.7672    1.0415   -1.2682 C.ar    1  UNL11       0.0299
     24 C          -6.5700    1.0255   -0.1489 C.ar    1  UNL11      -0.0379
     25 C          -7.9426    1.1943   -0.2220 C.ar    1  UNL11      -0.0247
     26 C          -8.5683    1.3873   -1.4329 C.ar    1  UNL11       0.1235
     27 F          -9.9270    1.5546   -1.5126 F       1  UNL11      -0.2055
     28 C          -7.7917    1.4083   -2.5718 C.ar    1  UNL11      -0.0247
     29 C          -6.4144    1.2374   -2.4816 C.ar    1  UNL11      -0.0379
     30 C          -3.6153    1.3312   -0.0667 C.3     1  UNL11       0.0280
     31 C          -2.2206    1.7857   -0.5215 C.3     1  UNL11       0.0305
     32 H           3.6120    2.2766   -3.6308 H       1  UNL11       0.0424
     33 H           2.5717    3.5197   -4.3133 H       1  UNL11       0.0424
     34 H           5.3362    0.9410   -7.5755 H       1  UNL11       0.4829
     35 H           1.2358   -0.5611   -9.0400 H       1  UNL11       0.0627
     36 H          -1.0514   -0.3772   -8.1086 H       1  UNL11       0.0618
     37 H          -1.4534    0.8098   -5.9679 H       1  UNL11       0.0618
     38 H           0.4931    1.8224   -4.7603 H       1  UNL11       0.0624
     39 H           2.4155   -0.1110   -3.4185 H       1  UNL11       0.1492
     40 H           0.8591   -0.9299   -1.7677 H       1  UNL11       0.0558
     41 H          -0.1952   -0.6424   -3.1716 H       1  UNL11       0.0558
     42 H          -1.8360   -0.8665   -2.6209 H       1  UNL11       0.0480
     43 H          -2.6489   -0.9952   -0.9823 H       1  UNL11       0.0480
     44 H          -3.3805    1.0684   -3.0476 H       1  UNL11       0.0479
     45 H          -4.2541   -0.5541   -2.8172 H       1  UNL11       0.0479
     46 H          -6.0813    0.8700    0.8191 H       1  UNL11       0.0637
     47 H          -8.5398    1.1769    0.6671 H       1  UNL11       0.0647
     48 H          -8.2799    1.5579   -3.5077 H       1  UNL11       0.0647
     49 H          -5.8259    1.2586   -3.3764 H       1  UNL11       0.0637
     50 H          -3.4940    0.4608    0.6120 H       1  UNL11       0.0479
     51 H          -4.0813    2.1963    0.4389 H       1  UNL11       0.0479
     52 H          -2.3625    2.7479   -1.0169 H       1  UNL11       0.0480
     53 H          -1.6445    1.9276    0.4295 H       1  UNL11       0.0480
@<TRIPOS>BOND
     1     1     2    2
     2     2     3    1
     3     2    15   am
     4     3     4    1
     5     3    32    1
     6     3    33    1
     7     4     5    2
     8     5     6    1
     9     6     7   am
    10     6    34    1
    11     7     8    2
    12     7     9    1
    13     9    10   ar
    14    10    11   ar
    15    10    35    1
    16    11    12   ar
    17    11    36    1
    18    12    13   ar
    19    12    37    1
    20    13    14   ar
    21    13    38    1
    22    14     4    1
    23    14     9   ar
    24    15    16    1
    25    15    39    1
    26    16    17    1
    27    16    40    1
    28    16    41    1
    29    17    18    2
    30    17    19   am
    31    19    20    1
    32    20    21    1
    33    20    42    1
    34    20    43    1
    35    21    22    1
    36    21    44    1
    37    21    45    1
    38    22    23    1
    39    22    30    1
    40    23    24   ar
    41    24    25   ar
    42    24    46    1
    43    25    26   ar
    44    25    47    1
    45    26    27    1
    46    26    28   ar
    47    28    29   ar
    48    28    48    1
    49    29    23   ar
    50    29    49    1
    51    30    31    1
    52    30    50    1
    53    30    51    1
    54    31    19    1
    55    31    52    1
    56    31    53    1
@<TRIPOS>MOLECULE
*****
 53 56 0 0 0
SMALL
GASTEIGER

@<TRIPOS>ATOM
      1 O           1.1335   -1.0880   -5.0002 O.2     1  UNL11      -0.2754
      2 C          -0.0823   -1.1527   -4.6964 C.2     1  UNL11       0.2195
      3 C          -1.1240   -1.7033   -5.6275 C.3     1  UNL11       0.0725
      4 C          -1.2779   -3.1148   -5.4149 C.2     1  UNL11       0.1237
      5 N          -1.6676   -3.5863   -4.2214 N.2     1  UNL11      -0.0071
      6 N          -1.8160   -4.8843   -4.0107 N.am    1  UNL11      -0.0356
      7 C          -1.5949   -5.8030   -4.9456 C.2     1  UNL11       0.4383
      8 O          -1.7424   -7.0407   -4.7245 O.2     1  UNL11      -0.2116
      9 C          -1.1887   -5.3975   -6.2081 C.ar    1  UNL11       0.1004
     10 C          -0.9470   -6.3108   -7.2102 C.ar    1  UNL11      -0.0441
     11 C          -0.5457   -5.8294   -8.4397 C.ar    1  UNL11      -0.0608
     12 C          -0.3868   -4.4671   -8.6716 C.ar    1  UNL11      -0.0611
     13 C          -0.6345   -3.5702   -7.6535 C.ar    1  UNL11      -0.0518
     14 C          -1.0359   -4.0272   -6.4180 C.ar    1  UNL11       0.0194
     15 N          -0.4617   -0.6774   -3.4104 N.am    1  UNL11      -0.3064
     16 C           0.4920   -0.1359   -2.4689 C.3     1  UNL11       0.0883
     17 C          -0.1777    0.8756   -1.6345 C.2     1  UNL11       0.2328
     18 O           0.5022    1.8364   -1.1914 O.2     1  UNL11      -0.2739
     19 N          -1.5797    0.7907   -1.3173 N.am    1  UNL11      -0.2972
     20 C          -2.3506   -0.3266   -1.8167 C.3     1  UNL11       0.0305
     21 C          -3.6674    0.2635   -2.3441 C.3     1  UNL11       0.0280
     22 N          -4.3576    0.8781   -1.2248 N.pl3   1  UNL11      -0.3269
     23 C          -5.7672    1.0415   -1.2682 C.ar    1  UNL11       0.0299
     24 C          -6.5700    1.0255   -0.1489 C.ar    1  UNL11      -0.0379
     25 C          -7.9426    1.1943   -0.2220 C.ar    1  UNL11      -0.0247
     26 C          -8.5683    1.3873   -1.4329 C.ar    1  UNL11       0.1235
     27 F          -9.9270    1.5546   -1.5126 F       1  UNL11      -0.2055
     28 C          -7.7917    1.4083   -2.5718 C.ar    1  UNL11      -0.0247
     29 C          -6.4144    1.2374   -2.4816 C.ar    1  UNL11      -0.0379
     30 C          -3.6153    1.3312   -0.0667 C.3     1  UNL11       0.0280
     31 C          -2.2206    1.7857   -0.5215 C.3     1  UNL11       0.0305
     32 H          -0.7247   -1.5186   -6.6475 H       1  UNL11       0.0424
     33 H          -1.9924   -1.0573   -5.5189 H       1  UNL11       0.0424
     34 H          -2.1226   -5.1915   -3.0581 H       1  UNL11       0.4829
     35 H          -1.0821   -7.3554   -6.9886 H       1  UNL11       0.0627
     36 H          -0.3594   -6.5427   -9.2134 H       1  UNL11       0.0618
     37 H          -0.0724   -4.1163   -9.6414 H       1  UNL11       0.0618
     38 H          -0.5246   -2.4971   -7.7851 H       1  UNL11       0.0624
     39 H          -1.4701   -0.7134   -3.1161 H       1  UNL11       0.1492
     40 H           1.3303    0.3928   -2.9930 H       1  UNL11       0.0558
     41 H           0.9620   -0.9436   -1.8778 H       1  UNL11       0.0558
     42 H          -1.8360   -0.8665   -2.6209 H       1  UNL11       0.0480
     43 H          -2.6489   -0.9952   -0.9823 H       1  UNL11       0.0480
     44 H          -3.3805    1.0684   -3.0476 H       1  UNL11       0.0479
     45 H          -4.2541   -0.5541   -2.8172 H       1  UNL11       0.0479
     46 H          -6.0813    0.8700    0.8191 H       1  UNL11       0.0637
     47 H          -8.5398    1.1769    0.6671 H       1  UNL11       0.0647
     48 H          -8.2799    1.5579   -3.5077 H       1  UNL11       0.0647
     49 H          -5.8259    1.2586   -3.3764 H       1  UNL11       0.0637
     50 H          -3.4940    0.4608    0.6120 H       1  UNL11       0.0479
     51 H          -4.0813    2.1963    0.4389 H       1  UNL11       0.0479
     52 H          -2.3625    2.7479   -1.0169 H       1  UNL11       0.0480
     53 H          -1.6445    1.9276    0.4295 H       1  UNL11       0.0480
@<TRIPOS>BOND
     1     1     2    2
     2     2     3    1
     3     2    15   am
     4     3     4    1
     5     3    32    1
     6     3    33    1
     7     4     5    2
     8     5     6    1
     9     6     7   am
    10     6    34    1
    11     7     8    2
    12     7     9    1
    13     9    10   ar
    14    10    11   ar
    15    10    35    1
    16    11    12   ar
    17    11    36    1
    18    12    13   ar
    19    12    37    1
    20    13    14   ar
    21    13    38    1
    22    14     4    1
    23    14     9   ar
    24    15    16    1
    25    15    39    1
    26    16    17    1
    27    16    40    1
    28    16    41    1
    29    17    18    2
    30    17    19   am
    31    19    20    1
    32    20    21    1
    33    20    42    1
    34    20    43    1
    35    21    22    1
    36    21    44    1
    37    21    45    1
    38    22    23    1
    39    22    30    1
    40    23    24   ar
    41    24    25   ar
    42    24    46    1
    43    25    26   ar
    44    25    47    1
    45    26    27    1
    46    26    28   ar
    47    28    29   ar
    48    28    48    1
    49    29    23   ar
    50    29    49    1
    51    30    31    1
    52    30    50    1
    53    30    51    1
    54    31    19    1
    55    31    52    1
    56    31    53    1
@<TRIPOS>MOLECULE
*****
 53 56 0 0 0
SMALL
GASTEIGER

@<TRIPOS>ATOM
      1 O           0.7566   -2.7950   -3.2333 O.2     1  UNL11      -0.2754
      2 C           1.1125   -2.5382   -2.0578 C.2     1  UNL11       0.2195
      3 C           1.6445   -3.5862   -1.1229 C.3     1  UNL11       0.0725
      4 C           1.3135   -3.2504    0.2331 C.2     1  UNL11       0.1237
      5 N           0.0328   -3.1354    0.6141 N.2     1  UNL11      -0.0071
      6 N          -0.2882   -2.8285    1.8607 N.am    1  UNL11      -0.0356
      7 C           0.6145   -2.6146    2.8127 C.2     1  UNL11       0.4383
      8 O           0.2875   -2.3219    4.0001 O.2     1  UNL11      -0.2116
      9 C           1.9620   -2.7141    2.5002 C.ar    1  UNL11       0.1004
     10 C           2.9352   -2.5016    3.4512 C.ar    1  UNL11      -0.0441
     11 C           4.2543   -2.6190    3.0630 C.ar    1  UNL11      -0.0608
     12 C           4.6023   -2.9411    1.7553 C.ar    1  UNL11      -0.0611
     13 C           3.6111   -3.1498    0.8191 C.ar    1  UNL11      -0.0518
     14 C           2.2877   -3.0381    1.1834 C.ar    1  UNL11       0.0194
     15 N           0.9964   -1.1902   -1.6185 N.am    1  UNL11      -0.3064
     16 C           0.4920   -0.1359   -2.4689 C.3     1  UNL11       0.0883
     17 C          -0.1777    0.8756   -1.6345 C.2     1  UNL11       0.2328
     18 O           0.5022    1.8364   -1.1914 O.2     1  UNL11      -0.2739
     19 N          -1.5797    0.7907   -1.3173 N.am    1  UNL11      -0.2972
     20 C          -2.3506   -0.3266   -1.8167 C.3     1  UNL11       0.0305
     21 C          -3.6674    0.2635   -2.3441 C.3     1  UNL11       0.0280
     22 N          -4.3576    0.8781   -1.2248 N.pl3   1  UNL11      -0.3269
     23 C          -5.7672    1.0415   -1.2682 C.ar    1  UNL11       0.0299
     24 C          -6.4970    1.6264   -0.2568 C.ar    1  UNL11      -0.0379
     25 C          -7.8716    1.7780   -0.3305 C.ar    1  UNL11      -0.0247
     26 C          -8.5733    1.3441   -1.4325 C.ar    1  UNL11       0.1235
     27 F          -9.9345    1.4907   -1.5117 F       1  UNL11      -0.2055
     28 C          -7.8709    0.7543   -2.4618 C.ar    1  UNL11      -0.0247
     29 C          -6.4906    0.6095   -2.3726 C.ar    1  UNL11      -0.0379
     30 C          -3.6153    1.3312   -0.0667 C.3     1  UNL11       0.0280
     31 C          -2.2206    1.7857   -0.5215 C.3     1  UNL11       0.0305
     32 H           2.7468   -3.5594   -1.2580 H       1  UNL11       0.0424
     33 H           1.3118   -4.5408   -1.5246 H       1  UNL11       0.0424
     34 H          -1.3050   -2.7531    2.0977 H       1  UNL11       0.4829
     35 H           2.6227   -2.2545    4.4512 H       1  UNL11       0.0627
     36 H           5.0051   -2.4528    3.8051 H       1  UNL11       0.0618
     37 H           5.6404   -3.0270    1.4771 H       1  UNL11       0.0618
     38 H           3.8321   -3.4033   -0.2142 H       1  UNL11       0.0624
     39 H           1.2834   -0.9322   -0.6409 H       1  UNL11       0.1492
     40 H          -0.2834   -0.5199   -3.1817 H       1  UNL11       0.0558
     41 H           1.3009    0.2845   -3.0945 H       1  UNL11       0.0558
     42 H          -1.8360   -0.8665   -2.6209 H       1  UNL11       0.0480
     43 H          -2.6489   -0.9952   -0.9823 H       1  UNL11       0.0480
     44 H          -3.3805    1.0684   -3.0476 H       1  UNL11       0.0479
     45 H          -4.2541   -0.5541   -2.8172 H       1  UNL11       0.0479
     46 H          -5.9476    1.9725    0.6254 H       1  UNL11       0.0637
     47 H          -8.4109    2.2372    0.4731 H       1  UNL11       0.0647
     48 H          -8.4178    0.4196   -3.3134 H       1  UNL11       0.0647
     49 H          -5.9603    0.1509   -3.1826 H       1  UNL11       0.0637
     50 H          -3.4940    0.4608    0.6120 H       1  UNL11       0.0479
     51 H          -4.0813    2.1963    0.4389 H       1  UNL11       0.0479
     52 H          -2.3625    2.7479   -1.0169 H       1  UNL11       0.0480
     53 H          -1.6445    1.9276    0.4295 H       1  UNL11       0.0480
@<TRIPOS>BOND
     1     1     2    2
     2     2     3    1
     3     2    15   am
     4     3     4    1
     5     3    32    1
     6     3    33    1
     7     4     5    2
     8     5     6    1
     9     6     7   am
    10     6    34    1
    11     7     8    2
    12     7     9    1
    13     9    10   ar
    14    10    11   ar
    15    10    35    1
    16    11    12   ar
    17    11    36    1
    18    12    13   ar
    19    12    37    1
    20    13    14   ar
    21    13    38    1
    22    14     4    1
    23    14     9   ar
    24    15    16    1
    25    15    39    1
    26    16    17    1
    27    16    40    1
    28    16    41    1
    29    17    18    2
    30    17    19   am
    31    19    20    1
    32    20    21    1
    33    20    42    1
    34    20    43    1
    35    21    22    1
    36    21    44    1
    37    21    45    1
    38    22    23    1
    39    22    30    1
    40    23    24   ar
    41    24    25   ar
    42    24    46    1
    43    25    26   ar
    44    25    47    1
    45    26    27    1
    46    26    28   ar
    47    28    29   ar
    48    28    48    1
    49    29    23   ar
    50    29    49    1
    51    30    31    1
    52    30    50    1
    53    30    51    1
    54    31    19    1
    55    31    52    1
    56    31    53    1
@<TRIPOS>MOLECULE
*****
 53 56 0 0 0
SMALL
GASTEIGER

@<TRIPOS>ATOM
      1 O          -0.3353   -0.9976   -5.8935 O.2     1  UNL11      -0.2754
      2 C           0.2731   -1.0597   -4.7978 C.2     1  UNL11       0.2195
      3 C           1.3980   -2.0226   -4.5468 C.3     1  UNL11       0.0725
      4 C           1.0650   -2.8955   -3.4568 C.2     1  UNL11       0.1237
      5 N          -0.1117   -2.7786   -2.8242 N.2     1  UNL11      -0.0071
      6 N          -0.4339   -3.5771   -1.8193 N.am    1  UNL11      -0.0356
      7 C           0.3668   -4.5372   -1.3676 C.2     1  UNL11       0.4383
      8 O           0.0406   -5.2913   -0.4045 O.2     1  UNL11      -0.2116
      9 C           1.6029   -4.7238   -1.9682 C.ar    1  UNL11       0.1004
     10 C           2.4679   -5.7047   -1.5365 C.ar    1  UNL11      -0.0441
     11 C           3.6798   -5.8281   -2.1849 C.ar    1  UNL11      -0.0608
     12 C           4.0281   -4.9940   -3.2422 C.ar    1  UNL11      -0.0611
     13 C           3.1463   -4.0183   -3.6580 C.ar    1  UNL11      -0.0518
     14 C           1.9310   -3.8763   -3.0260 C.ar    1  UNL11       0.0194
     15 N          -0.1406   -0.1698   -3.7681 N.am    1  UNL11      -0.3064
     16 C           0.4920   -0.1359   -2.4689 C.3     1  UNL11       0.0883
     17 C          -0.1777    0.8756   -1.6345 C.2     1  UNL11       0.2328
     18 O           0.5022    1.8364   -1.1914 O.2     1  UNL11      -0.2739
     19 N          -1.5797    0.7907   -1.3173 N.am    1  UNL11      -0.2972
     20 C          -2.1811    1.8165   -0.4939 C.3     1  UNL11       0.0305
     21 C          -3.0681    1.0832    0.5238 C.3     1  UNL11       0.0280
     22 N          -4.0987    0.3761   -0.2145 N.pl3   1  UNL11      -0.3269
     23 C          -5.3247    0.0488    0.4220 C.ar    1  UNL11       0.0299
     24 C          -5.8791    0.7977    1.4365 C.ar    1  UNL11      -0.0379
     25 C          -7.0809    0.4567    2.0343 C.ar    1  UNL11      -0.0247
     26 C          -7.7791   -0.6598    1.6330 C.ar    1  UNL11       0.1235
     27 F          -8.9694   -1.0036    2.2209 F       1  UNL11      -0.2055
     28 C          -7.2499   -1.4301    0.6194 C.ar    1  UNL11      -0.0247
     29 C          -6.0420   -1.0741    0.0293 C.ar    1  UNL11      -0.0379
     30 C          -3.8803   -0.0027   -1.5953 C.3     1  UNL11       0.0280
     31 C          -2.3843   -0.2837   -1.7992 C.3     1  UNL11       0.0305
     32 H           2.2644   -1.3861   -4.2670 H       1  UNL11       0.0424
     33 H           1.6397   -2.4575   -5.5141 H       1  UNL11       0.0424
     34 H          -1.3667   -3.4372   -1.3653 H       1  UNL11       0.4829
     35 H           2.1593   -6.3284   -0.7153 H       1  UNL11       0.0627
     36 H           4.3470   -6.5909   -1.8455 H       1  UNL11       0.0618
     37 H           4.9811   -5.1109   -3.7325 H       1  UNL11       0.0618
     38 H           3.3722   -3.3426   -4.4785 H       1  UNL11       0.0624
     39 H          -0.9353    0.4961   -3.9404 H       1  UNL11       0.1492
     40 H           1.5656    0.1781   -2.5439 H       1  UNL11       0.0558
     41 H           0.4990   -1.1416   -2.0094 H       1  UNL11       0.0558
     42 H          -1.4350    2.4243    0.0324 H       1  UNL11       0.0480
     43 H          -2.8818    2.4337   -1.0941 H       1  UNL11       0.0480
     44 H          -2.4186    0.3275    1.0056 H       1  UNL11       0.0479
     45 H          -3.4822    1.8327    1.2332 H       1  UNL11       0.0479
     46 H          -5.3295    1.6867    1.7644 H       1  UNL11       0.0637
     47 H          -7.4862    1.0598    2.8213 H       1  UNL11       0.0647
     48 H          -7.7934   -2.2940    0.3115 H       1  UNL11       0.0647
     49 H          -5.6463   -1.6828   -0.7585 H       1  UNL11       0.0637
     50 H          -4.1608    0.8663   -2.2269 H       1  UNL11       0.0479
     51 H          -4.4182   -0.9236   -1.8851 H       1  UNL11       0.0479
     52 H          -2.1908   -1.2489   -1.3276 H       1  UNL11       0.0480
     53 H          -2.2609   -0.3702   -2.9099 H       1  UNL11       0.0480
@<TRIPOS>BOND
     1     1     2    2
     2     2     3    1
     3     2    15   am
     4     3     4    1
     5     3    32    1
     6     3    33    1
     7     4     5    2
     8     5     6    1
     9     6     7   am
    10     6    34    1
    11     7     8    2
    12     7     9    1
    13     9    10   ar
    14    10    11   ar
    15    10    35    1
    16    11    12   ar
    17    11    36    1
    18    12    13   ar
    19    12    37    1
    20    13    14   ar
    21    13    38    1
    22    14     4    1
    23    14     9   ar
    24    15    16    1
    25    15    39    1
    26    16    17    1
    27    16    40    1
    28    16    41    1
    29    17    18    2
    30    17    19   am
    31    19    20    1
    32    20    21    1
    33    20    42    1
    34    20    43    1
    35    21    22    1
    36    21    44    1
    37    21    45    1
    38    22    23    1
    39    22    30    1
    40    23    24   ar
    41    24    25   ar
    42    24    46    1
    43    25    26   ar
    44    25    47    1
    45    26    27    1
    46    26    28   ar
    47    28    29   ar
    48    28    48    1
    49    29    23   ar
    50    29    49    1
    51    30    31    1
    52    30    50    1
    53    30    51    1
    54    31    19    1
    55    31    52    1
    56    31    53    1
@<TRIPOS>MOLECULE
*****
 53 56 0 0 0
SMALL
GASTEIGER

@<TRIPOS>ATOM
      1 O           2.4199    1.8648   -2.3932 O.2     1  UNL11      -0.2754
      2 C           2.0401    1.5308   -3.5415 C.2     1  UNL11       0.2195
      3 C           2.5824    2.1616   -4.7918 C.3     1  UNL11       0.0725
      4 C           2.3327    3.5753   -4.7785 C.2     1  UNL11       0.1237
      5 N           1.0792    4.0458   -4.7007 N.2     1  UNL11      -0.0071
      6 N           0.8331    5.3460   -4.6853 N.am    1  UNL11      -0.0356
      7 C           1.7887    6.2680   -4.7447 C.2     1  UNL11       0.4383
      8 O           1.5331    7.5077   -4.7287 O.2     1  UNL11      -0.2116
      9 C           3.1128    5.8637   -4.8270 C.ar    1  UNL11       0.1004
     10 C           4.1387    6.7804   -4.8908 C.ar    1  UNL11      -0.0441
     11 C           5.4300    6.3002   -4.9711 C.ar    1  UNL11      -0.0608
     12 C           5.6994    4.9356   -4.9880 C.ar    1  UNL11      -0.0611
     13 C           4.6565    4.0353   -4.9230 C.ar    1  UNL11      -0.0518
     14 C           3.3595    4.4912   -4.8424 C.ar    1  UNL11       0.0194
     15 N           1.0537    0.5100   -3.6336 N.am    1  UNL11      -0.3064
     16 C           0.4920   -0.1359   -2.4689 C.3     1  UNL11       0.0883
     17 C          -0.1777    0.8756   -1.6345 C.2     1  UNL11       0.2328
     18 O           0.5022    1.8364   -1.1914 O.2     1  UNL11      -0.2739
     19 N          -1.5797    0.7907   -1.3173 N.am    1  UNL11      -0.2972
     20 C          -2.1811    1.8165   -0.4939 C.3     1  UNL11       0.0305
     21 C          -3.0681    1.0832    0.5238 C.3     1  UNL11       0.0280
     22 N          -4.0987    0.3761   -0.2145 N.pl3   1  UNL11      -0.3269
     23 C          -5.3247    0.0488    0.4220 C.ar    1  UNL11       0.0299
     24 C          -6.0777   -1.0586    0.0995 C.ar    1  UNL11      -0.0379
     25 C          -7.2674   -1.3557    0.7431 C.ar    1  UNL11      -0.0247
     26 C          -7.7518   -0.5449    1.7446 C.ar    1  UNL11       0.1235
     27 F          -8.9294   -0.8329    2.3857 F       1  UNL11      -0.2055
     28 C          -7.0206    0.5716    2.0903 C.ar    1  UNL11      -0.0247
     29 C          -5.8276    0.8560    1.4345 C.ar    1  UNL11      -0.0379
     30 C          -3.8803   -0.0027   -1.5953 C.3     1  UNL11       0.0280
     31 C          -2.3843   -0.2837   -1.7992 C.3     1  UNL11       0.0305
     32 H           2.0161    1.6881   -5.6219 H       1  UNL11       0.0424
     33 H           3.6076    1.8095   -4.8831 H       1  UNL11       0.0424
     34 H          -0.1660    5.6522   -4.6231 H       1  UNL11       0.4829
     35 H           3.8865    7.8267   -4.8750 H       1  UNL11       0.0627
     36 H           6.2219    7.0161   -5.0206 H       1  UNL11       0.0618
     37 H           6.7172    4.5857   -5.0511 H       1  UNL11       0.0618
     38 H           4.8155    2.9604   -4.9330 H       1  UNL11       0.0624
     39 H           0.7078    0.2005   -4.5766 H       1  UNL11       0.1492
     40 H           1.2906   -0.5937   -1.8290 H       1  UNL11       0.0558
     41 H          -0.1762   -0.9659   -2.7643 H       1  UNL11       0.0558
     42 H          -1.4350    2.4243    0.0324 H       1  UNL11       0.0480
     43 H          -2.8818    2.4337   -1.0941 H       1  UNL11       0.0480
     44 H          -2.4186    0.3275    1.0056 H       1  UNL11       0.0479
     45 H          -3.4822    1.8327    1.2332 H       1  UNL11       0.0479
     46 H          -5.7016   -1.7085   -0.6980 H       1  UNL11       0.0637
     47 H          -7.8304   -2.2249    0.4693 H       1  UNL11       0.0647
     48 H          -7.3990    1.1971    2.8663 H       1  UNL11       0.0647
     49 H          -5.2711    1.7266    1.7173 H       1  UNL11       0.0637
     50 H          -4.1608    0.8663   -2.2269 H       1  UNL11       0.0479
     51 H          -4.4182   -0.9236   -1.8851 H       1  UNL11       0.0479
     52 H          -2.1908   -1.2489   -1.3276 H       1  UNL11       0.0480
     53 H          -2.2609   -0.3702   -2.9099 H       1  UNL11       0.0480
@<TRIPOS>BOND
     1     1     2    2
     2     2     3    1
     3     2    15   am
     4     3     4    1
     5     3    32    1
     6     3    33    1
     7     4     5    2
     8     5     6    1
     9     6     7   am
    10     6    34    1
    11     7     8    2
    12     7     9    1
    13     9    10   ar
    14    10    11   ar
    15    10    35    1
    16    11    12   ar
    17    11    36    1
    18    12    13   ar
    19    12    37    1
    20    13    14   ar
    21    13    38    1
    22    14     4    1
    23    14     9   ar
    24    15    16    1
    25    15    39    1
    26    16    17    1
    27    16    40    1
    28    16    41    1
    29    17    18    2
    30    17    19   am
    31    19    20    1
    32    20    21    1
    33    20    42    1
    34    20    43    1
    35    21    22    1
    36    21    44    1
    37    21    45    1
    38    22    23    1
    39    22    30    1
    40    23    24   ar
    41    24    25   ar
    42    24    46    1
    43    25    26   ar
    44    25    47    1
    45    26    27    1
    46    26    28   ar
    47    28    29   ar
    48    28    48    1
    49    29    23   ar
    50    29    49    1
    51    30    31    1
    52    30    50    1
    53    30    51    1
    54    31    19    1
    55    31    52    1
    56    31    53    1
@<TRIPOS>MOLECULE
*****
 53 56 0 0 0
SMALL
GASTEIGER

@<TRIPOS>ATOM
      1 O          -1.5259   -0.6578   -5.4371 O.2     1  UNL11      -0.2754
      2 C          -0.6631   -0.1184   -4.7029 C.2     1  UNL11       0.2195
      3 C           0.1442    1.0711   -5.1373 C.3     1  UNL11       0.0725
      4 C          -0.0890    2.1753   -4.2500 C.2     1  UNL11       0.1237
      5 N          -0.4008    1.9622   -2.9632 N.2     1  UNL11      -0.0071
      6 N          -0.6167    2.9696   -2.1326 N.am    1  UNL11      -0.0356
      7 C          -0.5430    4.2447   -2.5009 C.2     1  UNL11       0.4383
      8 O          -0.7530    5.1949   -1.6913 O.2     1  UNL11      -0.2116
      9 C          -0.2255    4.5503   -3.8160 C.ar    1  UNL11       0.1004
     10 C          -0.1372    5.8556   -4.2463 C.ar    1  UNL11      -0.0441
     11 C           0.1834    6.0790   -5.5699 C.ar    1  UNL11      -0.0608
     12 C           0.4122    5.0272   -6.4511 C.ar    1  UNL11      -0.0611
     13 C           0.3183    3.7277   -5.9983 C.ar    1  UNL11      -0.0518
     14 C          -0.0003    3.4804   -4.6816 C.ar    1  UNL11       0.0194
     15 N          -0.4617   -0.6774   -3.4104 N.am    1  UNL11      -0.3064
     16 C           0.4920   -0.1359   -2.4689 C.3     1  UNL11       0.0883
     17 C          -0.1777    0.8756   -1.6345 C.2     1  UNL11       0.2328
     18 O           0.5022    1.8364   -1.1914 O.2     1  UNL11      -0.2739
     19 N          -1.5797    0.7907   -1.3173 N.am    1  UNL11      -0.2972
     20 C          -2.3506   -0.3266   -1.8167 C.3     1  UNL11       0.0305
     21 C          -3.6674    0.2635   -2.3441 C.3     1  UNL11       0.0280
     22 N          -4.3576    0.8781   -1.2248 N.pl3   1  UNL11      -0.3269
     23 C          -5.7672    1.0415   -1.2682 C.ar    1  UNL11       0.0299
     24 C          -6.4773    1.2187   -2.4352 C.ar    1  UNL11      -0.0379
     25 C          -7.8539    1.3689   -2.4465 C.ar    1  UNL11      -0.0247
     26 C          -8.5778    1.3472   -1.2758 C.ar    1  UNL11       0.1235
     27 F          -9.9410    1.4959   -1.2797 F       1  UNL11      -0.2055
     28 C          -7.8954    1.1715   -0.0907 C.ar    1  UNL11      -0.0247
     29 C          -6.5128    1.0219   -0.0963 C.ar    1  UNL11      -0.0379
     30 C          -3.6153    1.3312   -0.0667 C.3     1  UNL11       0.0280
     31 C          -2.2206    1.7857   -0.5215 C.3     1  UNL11       0.0305
     32 H          -0.2324    1.3191   -6.1525 H       1  UNL11       0.0424
     33 H           1.1613    0.7088   -5.2700 H       1  UNL11       0.0424
     34 H          -0.8563    2.7400   -1.1398 H       1  UNL11       0.4829
     35 H          -0.3217    6.6394   -3.5320 H       1  UNL11       0.0627
     36 H           0.2504    7.0938   -5.8982 H       1  UNL11       0.0618
     37 H           0.6613    5.2282   -7.4805 H       1  UNL11       0.0618
     38 H           0.4878    2.8728   -6.6474 H       1  UNL11       0.0624
     39 H          -1.0190   -1.5168   -3.1110 H       1  UNL11       0.1492
     40 H           1.3303    0.3928   -2.9930 H       1  UNL11       0.0558
     41 H           0.9620   -0.9436   -1.8778 H       1  UNL11       0.0558
     42 H          -1.8360   -0.8665   -2.6209 H       1  UNL11       0.0480
     43 H          -2.6489   -0.9952   -0.9823 H       1  UNL11       0.0480
     44 H          -3.3805    1.0684   -3.0476 H       1  UNL11       0.0479
     45 H          -4.2541   -0.5541   -2.8172 H       1  UNL11       0.0479
     46 H          -5.9096    1.2399   -3.3718 H       1  UNL11       0.0637
     47 H          -8.3776    1.5051   -3.3710 H       1  UNL11       0.0647
     48 H          -8.4594    1.1553    0.8138 H       1  UNL11       0.0647
     49 H          -5.9988    0.8842    0.8335 H       1  UNL11       0.0637
     50 H          -3.4940    0.4608    0.6120 H       1  UNL11       0.0479
     51 H          -4.0813    2.1963    0.4389 H       1  UNL11       0.0479
     52 H          -2.3625    2.7479   -1.0169 H       1  UNL11       0.0480
     53 H          -1.6445    1.9276    0.4295 H       1  UNL11       0.0480
@<TRIPOS>BOND
     1     1     2    2
     2     2     3    1
     3     2    15   am
     4     3     4    1
     5     3    32    1
     6     3    33    1
     7     4     5    2
     8     5     6    1
     9     6     7   am
    10     6    34    1
    11     7     8    2
    12     7     9    1
    13     9    10   ar
    14    10    11   ar
    15    10    35    1
    16    11    12   ar
    17    11    36    1
    18    12    13   ar
    19    12    37    1
    20    13    14   ar
    21    13    38    1
    22    14     4    1
    23    14     9   ar
    24    15    16    1
    25    15    39    1
    26    16    17    1
    27    16    40    1
    28    16    41    1
    29    17    18    2
    30    17    19   am
    31    19    20    1
    32    20    21    1
    33    20    42    1
    34    20    43    1
    35    21    22    1
    36    21    44    1
    37    21    45    1
    38    22    23    1
    39    22    30    1
    40    23    24   ar
    41    24    25   ar
    42    24    46    1
    43    25    26   ar
    44    25    47    1
    45    26    27    1
    46    26    28   ar
    47    28    29   ar
    48    28    48    1
    49    29    23   ar
    50    29    49    1
    51    30    31    1
    52    30    50    1
    53    30    51    1
    54    31    19    1
    55    31    52    1
    56    31    53    1
@<TRIPOS>MOLECULE
*****
 53 56 0 0 0
SMALL
GASTEIGER

@<TRIPOS>ATOM
      1 O          -2.0470   -2.2147   -4.0138 O.2     1  UNL11      -0.2754
      2 C          -1.2598   -1.8187   -3.1205 C.2     1  UNL11       0.2195
      3 C          -1.1379   -2.4971   -1.7862 C.3     1  UNL11       0.0725
      4 C          -0.1272   -3.5151   -1.8417 C.2     1  UNL11       0.1237
      5 N           0.5851   -3.8293   -0.7497 N.2     1  UNL11      -0.0071
      6 N           1.5186   -4.7666   -0.7845 N.am    1  UNL11      -0.0356
      7 C           1.8172   -5.4555   -1.8814 C.2     1  UNL11       0.4383
      8 O           2.7141   -6.3488   -1.8948 O.2     1  UNL11      -0.2116
      9 C           1.1258   -5.1908   -3.0541 C.ar    1  UNL11       0.1004
     10 C           1.3984   -5.8772   -4.2166 C.ar    1  UNL11      -0.0441
     11 C           0.6675   -5.5567   -5.3425 C.ar    1  UNL11      -0.0608
     12 C          -0.3158   -4.5731   -5.3165 C.ar    1  UNL11      -0.0611
     13 C          -0.5721   -3.8983   -4.1412 C.ar    1  UNL11      -0.0518
     14 C           0.1445   -4.2010   -3.0049 C.ar    1  UNL11       0.0194
     15 N          -0.4617   -0.6774   -3.4104 N.am    1  UNL11      -0.3064
     16 C           0.4920   -0.1359   -2.4689 C.3     1  UNL11       0.0883
     17 C          -0.1777    0.8756   -1.6345 C.2     1  UNL11       0.2328
     18 O           0.5022    1.8364   -1.1914 O.2     1  UNL11      -0.2739
     19 N          -1.5797    0.7907   -1.3173 N.am    1  UNL11      -0.2972
     20 C          -2.1811    1.8165   -0.4939 C.3     1  UNL11       0.0305
     21 C          -3.0681    1.0832    0.5238 C.3     1  UNL11       0.0280
     22 N          -4.0987    0.3761   -0.2145 N.pl3   1  UNL11      -0.3269
     23 C          -5.3247    0.0488    0.4220 C.ar    1  UNL11       0.0299
     24 C          -6.5267   -0.0453   -0.2442 C.ar    1  UNL11      -0.0379
     25 C          -7.7062   -0.3732    0.4031 C.ar    1  UNL11      -0.0247
     26 C          -7.7249   -0.6215    1.7571 C.ar    1  UNL11       0.1235
     27 F          -8.8894   -0.9462    2.4045 F       1  UNL11      -0.2055
     28 C          -6.5373   -0.5350    2.4520 C.ar    1  UNL11      -0.0247
     29 C          -5.3613   -0.2048    1.7873 C.ar    1  UNL11      -0.0379
     30 C          -3.8803   -0.0027   -1.5953 C.3     1  UNL11       0.0280
     31 C          -2.3843   -0.2837   -1.7992 C.3     1  UNL11       0.0305
     32 H          -2.1307   -2.9629   -1.6086 H       1  UNL11       0.0424
     33 H          -1.0408   -1.6989   -1.0536 H       1  UNL11       0.0424
     34 H           2.0411   -4.9673    0.1001 H       1  UNL11       0.4829
     35 H           2.1669   -6.6304   -4.1932 H       1  UNL11       0.0627
     36 H           0.8835   -6.0925   -6.2416 H       1  UNL11       0.0618
     37 H          -0.8731   -4.3414   -6.2098 H       1  UNL11       0.0618
     38 H          -1.3296   -3.1223   -4.0703 H       1  UNL11       0.0624
     39 H          -0.5554   -0.1962   -4.3401 H       1  UNL11       0.1492
     40 H           1.3303    0.3928   -2.9930 H       1  UNL11       0.0558
     41 H           0.9620   -0.9436   -1.8778 H       1  UNL11       0.0558
     42 H          -1.4350    2.4243    0.0324 H       1  UNL11       0.0480
     43 H          -2.8818    2.4337   -1.0941 H       1  UNL11       0.0480
     44 H          -2.4186    0.3275    1.0056 H       1  UNL11       0.0479
     45 H          -3.4822    1.8327    1.2332 H       1  UNL11       0.0479
     46 H          -6.5222    0.1530   -1.3215 H       1  UNL11       0.0637
     47 H          -8.6253   -0.4385   -0.1431 H       1  UNL11       0.0647
     48 H          -6.5559   -0.7279    3.5004 H       1  UNL11       0.0647
     49 H          -4.4471   -0.1442    2.3424 H       1  UNL11       0.0637
     50 H          -4.1608    0.8663   -2.2269 H       1  UNL11       0.0479
     51 H          -4.4182   -0.9236   -1.8851 H       1  UNL11       0.0479
     52 H          -2.1908   -1.2489   -1.3276 H       1  UNL11       0.0480
     53 H          -2.2609   -0.3702   -2.9099 H       1  UNL11       0.0480
@<TRIPOS>BOND
     1     1     2    2
     2     2     3    1
     3     2    15   am
     4     3     4    1
     5     3    32    1
     6     3    33    1
     7     4     5    2
     8     5     6    1
     9     6     7   am
    10     6    34    1
    11     7     8    2
    12     7     9    1
    13     9    10   ar
    14    10    11   ar
    15    10    35    1
    16    11    12   ar
    17    11    36    1
    18    12    13   ar
    19    12    37    1
    20    13    14   ar
    21    13    38    1
    22    14     4    1
    23    14     9   ar
    24    15    16    1
    25    15    39    1
    26    16    17    1
    27    16    40    1
    28    16    41    1
    29    17    18    2
    30    17    19   am
    31    19    20    1
    32    20    21    1
    33    20    42    1
    34    20    43    1
    35    21    22    1
    36    21    44    1
    37    21    45    1
    38    22    23    1
    39    22    30    1
    40    23    24   ar
    41    24    25   ar
    42    24    46    1
    43    25    26   ar
    44    25    47    1
    45    26    27    1
    46    26    28   ar
    47    28    29   ar
    48    28    48    1
    49    29    23   ar
    50    29    49    1
    51    30    31    1
    52    30    50    1
    53    30    51    1
    54    31    19    1
    55    31    52    1
    56    31    53    1
@<TRIPOS>MOLECULE
*****
 53 56 0 0 0
SMALL
GASTEIGER

@<TRIPOS>ATOM
      1 O           2.4096    2.0363   -4.6504 O.2     1  UNL11      -0.2754
      2 C           1.3939    1.5774   -4.0740 C.2     1  UNL11       0.2195
      3 C           0.0154    2.1312   -4.2941 C.3     1  UNL11       0.0725
      4 C          -0.3531    2.0006   -5.6754 C.2     1  UNL11       0.1237
      5 N           0.4920    1.4470   -6.5574 N.2     1  UNL11      -0.0071
      6 N           0.1660    1.3178   -7.8335 N.am    1  UNL11      -0.0356
      7 C          -0.9999    1.7184   -8.3305 C.2     1  UNL11       0.4383
      8 O          -1.2935    1.5861   -9.5548 O.2     1  UNL11      -0.2116
      9 C          -1.9304    2.3017   -7.4835 C.ar    1  UNL11       0.1004
     10 C          -3.1522    2.7329   -7.9504 C.ar    1  UNL11      -0.0441
     11 C          -4.0246    3.3033   -7.0459 C.ar    1  UNL11      -0.0608
     12 C          -3.6916    3.4437   -5.7026 C.ar    1  UNL11      -0.0611
     13 C          -2.4624    3.0047   -5.2569 C.ar    1  UNL11      -0.0518
     14 C          -1.5754    2.4323   -6.1412 C.ar    1  UNL11       0.0194
     15 N           1.5851    0.4876   -3.1799 N.am    1  UNL11      -0.3064
     16 C           0.4920   -0.1359   -2.4689 C.3     1  UNL11       0.0883
     17 C          -0.1777    0.8756   -1.6345 C.2     1  UNL11       0.2328
     18 O           0.5022    1.8364   -1.1914 O.2     1  UNL11      -0.2739
     19 N          -1.5797    0.7907   -1.3173 N.am    1  UNL11      -0.2972
     20 C          -2.1811    1.8165   -0.4939 C.3     1  UNL11       0.0305
     21 C          -3.0681    1.0832    0.5238 C.3     1  UNL11       0.0280
     22 N          -4.0987    0.3761   -0.2145 N.pl3   1  UNL11      -0.3269
     23 C          -5.3247    0.0488    0.4220 C.ar    1  UNL11       0.0299
     24 C          -5.4396   -0.1942    1.7730 C.ar    1  UNL11      -0.0379
     25 C          -6.6514   -0.5051    2.3670 C.ar    1  UNL11      -0.0247
     26 C          -7.8054   -0.5849    1.6208 C.ar    1  UNL11       0.1235
     27 F          -9.0086   -0.8927    2.2024 F       1  UNL11      -0.2055
     28 C          -7.7229   -0.3468    0.2653 C.ar    1  UNL11      -0.0247
     29 C          -6.4985   -0.0357   -0.3161 C.ar    1  UNL11      -0.0379
     30 C          -3.8803   -0.0027   -1.5953 C.3     1  UNL11       0.0280
     31 C          -2.3843   -0.2837   -1.7992 C.3     1  UNL11       0.0305
     32 H           0.0911    3.2065   -4.0257 H       1  UNL11       0.0424
     33 H          -0.6150    1.6719   -3.5359 H       1  UNL11       0.0424
     34 H           0.8676    0.8776   -8.4736 H       1  UNL11       0.4829
     35 H          -3.3698    2.6054   -8.9968 H       1  UNL11       0.0627
     36 H          -4.9711    3.6362   -7.4139 H       1  UNL11       0.0618
     37 H          -4.3910    3.8926   -5.0158 H       1  UNL11       0.0618
     38 H          -2.1561    3.0922   -4.2179 H       1  UNL11       0.0624
     39 H           2.5516    0.1077   -3.0176 H       1  UNL11       0.1492
     40 H           0.8591   -0.9299   -1.7677 H       1  UNL11       0.0558
     41 H          -0.1952   -0.6424   -3.1716 H       1  UNL11       0.0558
     42 H          -1.4350    2.4243    0.0324 H       1  UNL11       0.0480
     43 H          -2.8818    2.4337   -1.0941 H       1  UNL11       0.0480
     44 H          -2.4186    0.3275    1.0056 H       1  UNL11       0.0479
     45 H          -3.4822    1.8327    1.2332 H       1  UNL11       0.0479
     46 H          -4.5262   -0.1355    2.3747 H       1  UNL11       0.0637
     47 H          -6.7081   -0.6889    3.4208 H       1  UNL11       0.0647
     48 H          -8.6188   -0.4096   -0.3092 H       1  UNL11       0.0647
     49 H          -6.4529    0.1485   -1.3704 H       1  UNL11       0.0637
     50 H          -4.1608    0.8663   -2.2269 H       1  UNL11       0.0479
     51 H          -4.4182   -0.9236   -1.8851 H       1  UNL11       0.0479
     52 H          -2.1908   -1.2489   -1.3276 H       1  UNL11       0.0480
     53 H          -2.2609   -0.3702   -2.9099 H       1  UNL11       0.0480
@<TRIPOS>BOND
     1     1     2    2
     2     2     3    1
     3     2    15   am
     4     3     4    1
     5     3    32    1
     6     3    33    1
     7     4     5    2
     8     5     6    1
     9     6     7   am
    10     6    34    1
    11     7     8    2
    12     7     9    1
    13     9    10   ar
    14    10    11   ar
    15    10    35    1
    16    11    12   ar
    17    11    36    1
    18    12    13   ar
    19    12    37    1
    20    13    14   ar
    21    13    38    1
    22    14     4    1
    23    14     9   ar
    24    15    16    1
    25    15    39    1
    26    16    17    1
    27    16    40    1
    28    16    41    1
    29    17    18    2
    30    17    19   am
    31    19    20    1
    32    20    21    1
    33    20    42    1
    34    20    43    1
    35    21    22    1
    36    21    44    1
    37    21    45    1
    38    22    23    1
    39    22    30    1
    40    23    24   ar
    41    24    25   ar
    42    24    46    1
    43    25    26   ar
    44    25    47    1
    45    26    27    1
    46    26    28   ar
    47    28    29   ar
    48    28    48    1
    49    29    23   ar
    50    29    49    1
    51    30    31    1
    52    30    50    1
    53    30    51    1
    54    31    19    1
    55    31    52    1
    56    31    53    1
@<TRIPOS>MOLECULE
*****
 53 56 0 0 0
SMALL
GASTEIGER

@<TRIPOS>ATOM
      1 O          -1.7775    0.3967   -3.9825 O.2     1  UNL11      -0.2754
      2 C          -1.6243   -0.8041   -3.6522 C.2     1  UNL11       0.2195
      3 C          -2.5929   -1.8836   -4.0417 C.3     1  UNL11       0.0725
      4 C          -3.6655   -1.3268   -4.8165 C.2     1  UNL11       0.1237
      5 N          -4.0571   -0.0582   -4.6265 N.2     1  UNL11      -0.0071
      6 N          -5.0428    0.4699   -5.3342 N.am    1  UNL11      -0.0356
      7 C          -5.7080   -0.2015   -6.2690 C.2     1  UNL11       0.4383
      8 O          -6.6485    0.3214   -6.9357 O.2     1  UNL11      -0.2116
      9 C          -5.3642   -1.5201   -6.5268 C.ar    1  UNL11       0.1004
     10 C          -6.0234   -2.2576   -7.4851 C.ar    1  UNL11      -0.0441
     11 C          -5.6233   -3.5634   -7.6835 C.ar    1  UNL11      -0.0608
     12 C          -4.5885   -4.1280   -6.9450 C.ar    1  UNL11      -0.0611
     13 C          -3.9422   -3.3708   -5.9904 C.ar    1  UNL11      -0.0518
     14 C          -4.3240   -2.0654   -5.7747 C.ar    1  UNL11       0.0194
     15 N          -0.4769   -1.1281   -2.8762 N.am    1  UNL11      -0.3064
     16 C           0.4920   -0.1359   -2.4689 C.3     1  UNL11       0.0883
     17 C          -0.1777    0.8756   -1.6345 C.2     1  UNL11       0.2328
     18 O           0.5022    1.8364   -1.1914 O.2     1  UNL11      -0.2739
     19 N          -1.5797    0.7907   -1.3173 N.am    1  UNL11      -0.2972
     20 C          -2.1811    1.8165   -0.4939 C.3     1  UNL11       0.0305
     21 C          -3.0681    1.0832    0.5238 C.3     1  UNL11       0.0280
     22 N          -4.0987    0.3761   -0.2145 N.pl3   1  UNL11      -0.3269
     23 C          -5.3247    0.0488    0.4220 C.ar    1  UNL11       0.0299
     24 C          -5.8791    0.7977    1.4365 C.ar    1  UNL11      -0.0379
     25 C          -7.0809    0.4567    2.0343 C.ar    1  UNL11      -0.0247
     26 C          -7.7791   -0.6598    1.6330 C.ar    1  UNL11       0.1235
     27 F          -8.9694   -1.0036    2.2209 F       1  UNL11      -0.2055
     28 C          -7.2499   -1.4301    0.6194 C.ar    1  UNL11      -0.0247
     29 C          -6.0420   -1.0741    0.0293 C.ar    1  UNL11      -0.0379
     30 C          -3.8803   -0.0027   -1.5953 C.3     1  UNL11       0.0280
     31 C          -2.3843   -0.2837   -1.7992 C.3     1  UNL11       0.0305
     32 H          -2.9882   -2.2759   -3.0806 H       1  UNL11       0.0424
     33 H          -1.9923   -2.6819   -4.4723 H       1  UNL11       0.0424
     34 H          -5.3031    1.4651   -5.1404 H       1  UNL11       0.4829
     35 H          -6.8181   -1.7825   -8.0339 H       1  UNL11       0.0627
     36 H          -6.1385   -4.1309   -8.4282 H       1  UNL11       0.0618
     37 H          -4.2947   -5.1506   -7.1192 H       1  UNL11       0.0618
     38 H          -3.1286   -3.7664   -5.3882 H       1  UNL11       0.0624
     39 H          -0.3108   -2.1223   -2.5783 H       1  UNL11       0.1492
     40 H           0.9130    0.4123   -3.3515 H       1  UNL11       0.0558
     41 H           1.3535   -0.6121   -1.9654 H       1  UNL11       0.0558
     42 H          -1.4350    2.4243    0.0324 H       1  UNL11       0.0480
     43 H          -2.8818    2.4337   -1.0941 H       1  UNL11       0.0480
     44 H          -2.4186    0.3275    1.0056 H       1  UNL11       0.0479
     45 H          -3.4822    1.8327    1.2332 H       1  UNL11       0.0479
     46 H          -5.3295    1.6867    1.7644 H       1  UNL11       0.0637
     47 H          -7.4862    1.0598    2.8213 H       1  UNL11       0.0647
     48 H          -7.7934   -2.2940    0.3115 H       1  UNL11       0.0647
     49 H          -5.6463   -1.6828   -0.7585 H       1  UNL11       0.0637
     50 H          -4.1608    0.8663   -2.2269 H       1  UNL11       0.0479
     51 H          -4.4182   -0.9236   -1.8851 H       1  UNL11       0.0479
     52 H          -2.1908   -1.2489   -1.3276 H       1  UNL11       0.0480
     53 H          -2.2609   -0.3702   -2.9099 H       1  UNL11       0.0480
@<TRIPOS>BOND
     1     1     2    2
     2     2     3    1
     3     2    15   am
     4     3     4    1
     5     3    32    1
     6     3    33    1
     7     4     5    2
     8     5     6    1
     9     6     7   am
    10     6    34    1
    11     7     8    2
    12     7     9    1
    13     9    10   ar
    14    10    11   ar
    15    10    35    1
    16    11    12   ar
    17    11    36    1
    18    12    13   ar
    19    12    37    1
    20    13    14   ar
    21    13    38    1
    22    14     4    1
    23    14     9   ar
    24    15    16    1
    25    15    39    1
    26    16    17    1
    27    16    40    1
    28    16    41    1
    29    17    18    2
    30    17    19   am
    31    19    20    1
    32    20    21    1
    33    20    42    1
    34    20    43    1
    35    21    22    1
    36    21    44    1
    37    21    45    1
    38    22    23    1
    39    22    30    1
    40    23    24   ar
    41    24    25   ar
    42    24    46    1
    43    25    26   ar
    44    25    47    1
    45    26    27    1
    46    26    28   ar
    47    28    29   ar
    48    28    48    1
    49    29    23   ar
    50    29    49    1
    51    30    31    1
    52    30    50    1
    53    30    51    1
    54    31    19    1
    55    31    52    1
    56    31    53    1
@<TRIPOS>MOLECULE
*****
 53 56 0 0 0
SMALL
GASTEIGER

@<TRIPOS>ATOM
      1 O          -0.7251   -3.4024   -1.4672 O.2     1  UNL11      -0.2754
      2 C          -0.7121   -2.3103   -2.0850 C.2     1  UNL11       0.2195
      3 C          -1.7828   -1.9169   -3.0618 C.3     1  UNL11       0.0725
      4 C          -1.2096   -1.7005   -4.3601 C.2     1  UNL11       0.1237
      5 N          -0.1137   -2.3723   -4.7425 N.2     1  UNL11      -0.0071
      6 N           0.4251   -2.1853   -5.9366 N.am    1  UNL11      -0.0356
      7 C          -0.0673   -1.3348   -6.8317 C.2     1  UNL11       0.4383
      8 O           0.4626   -1.1698   -7.9695 O.2     1  UNL11      -0.2116
      9 C          -1.2001   -0.6006   -6.5137 C.ar    1  UNL11       0.1004
     10 C          -1.7481    0.2931   -7.4069 C.ar    1  UNL11      -0.0441
     11 C          -2.8759    0.9864   -7.0170 C.ar    1  UNL11      -0.0608
     12 C          -3.4500    0.7972   -5.7641 C.ar    1  UNL11      -0.0611
     13 C          -2.8844   -0.1030   -4.8856 C.ar    1  UNL11      -0.0518
     14 C          -1.7587   -0.8064   -5.2526 C.ar    1  UNL11       0.0194
     15 N           0.3739   -1.4273   -1.8306 N.am    1  UNL11      -0.3064
     16 C           0.4920   -0.1359   -2.4689 C.3     1  UNL11       0.0883
     17 C          -0.1777    0.8756   -1.6345 C.2     1  UNL11       0.2328
     18 O           0.5022    1.8364   -1.1914 O.2     1  UNL11      -0.2739
     19 N          -1.5797    0.7907   -1.3173 N.am    1  UNL11      -0.2972
     20 C          -2.1811    1.8165   -0.4939 C.3     1  UNL11       0.0305
     21 C          -3.0681    1.0832    0.5238 C.3     1  UNL11       0.0280
     22 N          -4.0987    0.3761   -0.2145 N.pl3   1  UNL11      -0.3269
     23 C          -5.3247    0.0488    0.4220 C.ar    1  UNL11       0.0299
     24 C          -5.8791    0.7977    1.4365 C.ar    1  UNL11      -0.0379
     25 C          -7.0809    0.4567    2.0343 C.ar    1  UNL11      -0.0247
     26 C          -7.7791   -0.6598    1.6330 C.ar    1  UNL11       0.1235
     27 F          -8.9694   -1.0036    2.2209 F       1  UNL11      -0.2055
     28 C          -7.2499   -1.4301    0.6194 C.ar    1  UNL11      -0.0247
     29 C          -6.0420   -1.0741    0.0293 C.ar    1  UNL11      -0.0379
     30 C          -3.8803   -0.0027   -1.5953 C.3     1  UNL11       0.0280
     31 C          -2.3843   -0.2837   -1.7992 C.3     1  UNL11       0.0305
     32 H          -2.1939   -0.9625   -2.6690 H       1  UNL11       0.0424
     33 H          -2.5728   -2.6565   -2.9523 H       1  UNL11       0.0424
     34 H           1.2801   -2.7390   -6.1777 H       1  UNL11       0.4829
     35 H          -1.2727    0.4091   -8.3656 H       1  UNL11       0.0627
     36 H          -3.2967    1.6786   -7.7141 H       1  UNL11       0.0618
     37 H          -4.3313    1.3511   -5.4835 H       1  UNL11       0.0618
     38 H          -3.2953   -0.2858   -3.8963 H       1  UNL11       0.0624
     39 H           1.1289   -1.7079   -1.1554 H       1  UNL11       0.1492
     40 H          -0.0286   -0.1203   -3.4617 H       1  UNL11       0.0558
     41 H           1.5513    0.1045   -2.6753 H       1  UNL11       0.0558
     42 H          -1.4350    2.4243    0.0324 H       1  UNL11       0.0480
     43 H          -2.8818    2.4337   -1.0941 H       1  UNL11       0.0480
     44 H          -2.4186    0.3275    1.0056 H       1  UNL11       0.0479
     45 H          -3.4822    1.8327    1.2332 H       1  UNL11       0.0479
     46 H          -5.3295    1.6867    1.7644 H       1  UNL11       0.0637
     47 H          -7.4862    1.0598    2.8213 H       1  UNL11       0.0647
     48 H          -7.7934   -2.2940    0.3115 H       1  UNL11       0.0647
     49 H          -5.6463   -1.6828   -0.7585 H       1  UNL11       0.0637
     50 H          -4.1608    0.8663   -2.2269 H       1  UNL11       0.0479
     51 H          -4.4182   -0.9236   -1.8851 H       1  UNL11       0.0479
     52 H          -2.1908   -1.2489   -1.3276 H       1  UNL11       0.0480
     53 H          -2.2609   -0.3702   -2.9099 H       1  UNL11       0.0480
@<TRIPOS>BOND
     1     1     2    2
     2     2     3    1
     3     2    15   am
     4     3     4    1
     5     3    32    1
     6     3    33    1
     7     4     5    2
     8     5     6    1
     9     6     7   am
    10     6    34    1
    11     7     8    2
    12     7     9    1
    13     9    10   ar
    14    10    11   ar
    15    10    35    1
    16    11    12   ar
    17    11    36    1
    18    12    13   ar
    19    12    37    1
    20    13    14   ar
    21    13    38    1
    22    14     4    1
    23    14     9   ar
    24    15    16    1
    25    15    39    1
    26    16    17    1
    27    16    40    1
    28    16    41    1
    29    17    18    2
    30    17    19   am
    31    19    20    1
    32    20    21    1
    33    20    42    1
    34    20    43    1
    35    21    22    1
    36    21    44    1
    37    21    45    1
    38    22    23    1
    39    22    30    1
    40    23    24   ar
    41    24    25   ar
    42    24    46    1
    43    25    26   ar
    44    25    47    1
    45    26    27    1
    46    26    28   ar
    47    28    29   ar
    48    28    48    1
    49    29    23   ar
    50    29    49    1
    51    30    31    1
    52    30    50    1
    53    30    51    1
    54    31    19    1
    55    31    52    1
    56    31    53    1
@<TRIPOS>MOLECULE
*****
 53 56 0 0 0
SMALL
GASTEIGER

@<TRIPOS>ATOM
      1 O           0.6897   -2.8650   -0.0883 O.2     1  UNL11      -0.2754
      2 C           0.1472   -1.9847   -0.7991 C.2     1  UNL11       0.2195
      3 C          -1.3361   -1.7504   -0.8108 C.3     1  UNL11       0.0725
      4 C          -1.9860   -2.6631    0.0869 C.2     1  UNL11       0.1237
      5 N          -2.7078   -2.2055    1.1204 N.2     1  UNL11      -0.0071
      6 N          -3.3144   -3.0341    1.9551 N.am    1  UNL11      -0.0356
      7 C          -3.2568   -4.3568    1.8372 C.2     1  UNL11       0.4383
      8 O          -3.8442   -5.1333    2.6462 O.2     1  UNL11      -0.2116
      9 C          -2.5299   -4.9107    0.7939 C.ar    1  UNL11       0.1004
     10 C          -2.4400   -6.2751    0.6291 C.ar    1  UNL11      -0.0441
     11 C          -1.6980   -6.7498   -0.4332 C.ar    1  UNL11      -0.0608
     12 C          -1.0566   -5.8874   -1.3163 C.ar    1  UNL11      -0.0611
     13 C          -1.1603   -4.5244   -1.1322 C.ar    1  UNL11      -0.0518
     14 C          -1.8954   -4.0275   -0.0790 C.ar    1  UNL11       0.0194
     15 N           0.9964   -1.1902   -1.6185 N.am    1  UNL11      -0.3064
     16 C           0.4920   -0.1359   -2.4689 C.3     1  UNL11       0.0883
     17 C          -0.1777    0.8756   -1.6345 C.2     1  UNL11       0.2328
     18 O           0.5022    1.8364   -1.1914 O.2     1  UNL11      -0.2739
     19 N          -1.5797    0.7907   -1.3173 N.am    1  UNL11      -0.2972
     20 C          -2.3506   -0.3266   -1.8167 C.3     1  UNL11       0.0305
     21 C          -3.6674    0.2635   -2.3441 C.3     1  UNL11       0.0280
     22 N          -4.3576    0.8781   -1.2248 N.pl3   1  UNL11      -0.3269
     23 C          -5.7672    1.0415   -1.2682 C.ar    1  UNL11       0.0299
     24 C          -6.6104    0.1972   -1.9564 C.ar    1  UNL11      -0.0379
     25 C          -7.9832    0.3784   -1.9749 C.ar    1  UNL11      -0.0247
     26 C          -8.5682    1.4241   -1.2971 C.ar    1  UNL11       0.1235
     27 F          -9.9268    1.6096   -1.3116 F       1  UNL11      -0.2055
     28 C          -7.7505    2.2868   -0.5986 C.ar    1  UNL11      -0.0247
     29 C          -6.3737    2.0910   -0.5897 C.ar    1  UNL11      -0.0379
     30 C          -3.6153    1.3312   -0.0667 C.3     1  UNL11       0.0280
     31 C          -2.2206    1.7857   -0.5215 C.3     1  UNL11       0.0305
     32 H          -1.6524   -1.9612   -1.8546 H       1  UNL11       0.0424
     33 H          -1.4703   -0.6812   -0.6621 H       1  UNL11       0.0424
     34 H          -3.8633   -2.6171    2.7429 H       1  UNL11       0.4829
     35 H          -2.9516   -6.9067    1.3349 H       1  UNL11       0.0627
     36 H          -1.6317   -7.8094   -0.5560 H       1  UNL11       0.0618
     37 H          -0.4830   -6.2834   -2.1388 H       1  UNL11       0.0618
     38 H          -0.6779   -3.8105   -1.7944 H       1  UNL11       0.0624
     39 H           2.0333   -1.3620   -1.6185 H       1  UNL11       0.1492
     40 H          -0.2834   -0.5199   -3.1817 H       1  UNL11       0.0558
     41 H           1.3009    0.2845   -3.0945 H       1  UNL11       0.0558
     42 H          -1.8360   -0.8665   -2.6209 H       1  UNL11       0.0480
     43 H          -2.6489   -0.9952   -0.9823 H       1  UNL11       0.0480
     44 H          -3.3805    1.0684   -3.0476 H       1  UNL11       0.0479
     45 H          -4.2541   -0.5541   -2.8172 H       1  UNL11       0.0479
     46 H          -6.1539   -0.6364   -2.5010 H       1  UNL11       0.0637
     47 H          -8.6125   -0.2958   -2.5198 H       1  UNL11       0.0647
     48 H          -8.2072    3.0953   -0.0749 H       1  UNL11       0.0647
     49 H          -5.7534    2.7697   -0.0399 H       1  UNL11       0.0637
     50 H          -3.4940    0.4608    0.6120 H       1  UNL11       0.0479
     51 H          -4.0813    2.1963    0.4389 H       1  UNL11       0.0479
     52 H          -2.3625    2.7479   -1.0169 H       1  UNL11       0.0480
     53 H          -1.6445    1.9276    0.4295 H       1  UNL11       0.0480
@<TRIPOS>BOND
     1     1     2    2
     2     2     3    1
     3     2    15   am
     4     3     4    1
     5     3    32    1
     6     3    33    1
     7     4     5    2
     8     5     6    1
     9     6     7   am
    10     6    34    1
    11     7     8    2
    12     7     9    1
    13     9    10   ar
    14    10    11   ar
    15    10    35    1
    16    11    12   ar
    17    11    36    1
    18    12    13   ar
    19    12    37    1
    20    13    14   ar
    21    13    38    1
    22    14     4    1
    23    14     9   ar
    24    15    16    1
    25    15    39    1
    26    16    17    1
    27    16    40    1
    28    16    41    1
    29    17    18    2
    30    17    19   am
    31    19    20    1
    32    20    21    1
    33    20    42    1
    34    20    43    1
    35    21    22    1
    36    21    44    1
    37    21    45    1
    38    22    23    1
    39    22    30    1
    40    23    24   ar
    41    24    25   ar
    42    24    46    1
    43    25    26   ar
    44    25    47    1
    45    26    27    1
    46    26    28   ar
    47    28    29   ar
    48    28    48    1
    49    29    23   ar
    50    29    49    1
    51    30    31    1
    52    30    50    1
    53    30    51    1
    54    31    19    1
    55    31    52    1
    56    31    53    1
@<TRIPOS>MOLECULE
*****
 53 56 0 0 0
SMALL
GASTEIGER

@<TRIPOS>ATOM
      1 O           0.6548   -2.8453   -1.8707 O.2     1  UNL11      -0.2754
      2 C          -0.3479   -2.5053   -2.5440 C.2     1  UNL11       0.2195
      3 C          -1.3910   -3.4852   -2.9992 C.3     1  UNL11       0.0725
      4 C          -2.0052   -4.1135   -1.8639 C.2     1  UNL11       0.1237
      5 N          -3.3243   -3.9980   -1.6511 N.2     1  UNL11      -0.0071
      6 N          -3.9054   -4.5730   -0.6104 N.am    1  UNL11      -0.0356
      7 C          -3.2411   -5.2948    0.2867 C.2     1  UNL11       0.4383
      8 O          -3.8150   -5.8373    1.2760 O.2     1  UNL11      -0.2116
      9 C          -1.8724   -5.4627    0.1386 C.ar    1  UNL11       0.1004
     10 C          -1.1399   -6.2012    1.0412 C.ar    1  UNL11      -0.0441
     11 C           0.2179   -6.3224    0.8257 C.ar    1  UNL11      -0.0608
     12 C           0.8383   -5.7219   -0.2650 C.ar    1  UNL11      -0.0611
     13 C           0.0851   -4.9868   -1.1564 C.ar    1  UNL11      -0.0518
     14 C          -1.2716   -4.8520   -0.9618 C.ar    1  UNL11       0.0194
     15 N          -0.4769   -1.1281   -2.8762 N.am    1  UNL11      -0.3064
     16 C           0.4920   -0.1359   -2.4689 C.3     1  UNL11       0.0883
     17 C          -0.1777    0.8756   -1.6345 C.2     1  UNL11       0.2328
     18 O           0.5022    1.8364   -1.1914 O.2     1  UNL11      -0.2739
     19 N          -1.5797    0.7907   -1.3173 N.am    1  UNL11      -0.2972
     20 C          -2.3506   -0.3266   -1.8167 C.3     1  UNL11       0.0305
     21 C          -3.6674    0.2635   -2.3441 C.3     1  UNL11       0.0280
     22 N          -4.3576    0.8781   -1.2248 N.pl3   1  UNL11      -0.3269
     23 C          -5.7672    1.0415   -1.2682 C.ar    1  UNL11       0.0299
     24 C          -6.4773    1.2187   -2.4352 C.ar    1  UNL11      -0.0379
     25 C          -7.8539    1.3689   -2.4465 C.ar    1  UNL11      -0.0247
     26 C          -8.5778    1.3472   -1.2758 C.ar    1  UNL11       0.1235
     27 F          -9.9410    1.4959   -1.2797 F       1  UNL11      -0.2055
     28 C          -7.8954    1.1715   -0.0907 C.ar    1  UNL11      -0.0247
     29 C          -6.5128    1.0219   -0.0963 C.ar    1  UNL11      -0.0379
     30 C          -3.6153    1.3312   -0.0667 C.3     1  UNL11       0.0280
     31 C          -2.2206    1.7857   -0.5215 C.3     1  UNL11       0.0305
     32 H          -0.8351   -4.2424   -3.5923 H       1  UNL11       0.0424
     33 H          -2.0186   -2.9462   -3.7055 H       1  UNL11       0.0424
     34 H          -4.9384   -4.4470   -0.4977 H       1  UNL11       0.4829
     35 H          -1.6590   -6.6490    1.8710 H       1  UNL11       0.0627
     36 H           0.7812   -6.8965    1.5294 H       1  UNL11       0.0618
     37 H           1.9007   -5.8318   -0.4112 H       1  UNL11       0.0618
     38 H           0.5231   -4.4990   -2.0230 H       1  UNL11       0.0624
     39 H          -1.3021   -0.8009   -3.4391 H       1  UNL11       0.1492
     40 H           0.9130    0.4123   -3.3515 H       1  UNL11       0.0558
     41 H           1.3535   -0.6121   -1.9654 H       1  UNL11       0.0558
     42 H          -1.8360   -0.8665   -2.6209 H       1  UNL11       0.0480
     43 H          -2.6489   -0.9952   -0.9823 H       1  UNL11       0.0480
     44 H          -3.3805    1.0684   -3.0476 H       1  UNL11       0.0479
     45 H          -4.2541   -0.5541   -2.8172 H       1  UNL11       0.0479
     46 H          -5.9096    1.2399   -3.3718 H       1  UNL11       0.0637
     47 H          -8.3776    1.5051   -3.3710 H       1  UNL11       0.0647
     48 H          -8.4594    1.1553    0.8138 H       1  UNL11       0.0647
     49 H          -5.9988    0.8842    0.8335 H       1  UNL11       0.0637
     50 H          -3.4940    0.4608    0.6120 H       1  UNL11       0.0479
     51 H          -4.0813    2.1963    0.4389 H       1  UNL11       0.0479
     52 H          -2.3625    2.7479   -1.0169 H       1  UNL11       0.0480
     53 H          -1.6445    1.9276    0.4295 H       1  UNL11       0.0480
@<TRIPOS>BOND
     1     1     2    2
     2     2     3    1
     3     2    15   am
     4     3     4    1
     5     3    32    1
     6     3    33    1
     7     4     5    2
     8     5     6    1
     9     6     7   am
    10     6    34    1
    11     7     8    2
    12     7     9    1
    13     9    10   ar
    14    10    11   ar
    15    10    35    1
    16    11    12   ar
    17    11    36    1
    18    12    13   ar
    19    12    37    1
    20    13    14   ar
    21    13    38    1
    22    14     4    1
    23    14     9   ar
    24    15    16    1
    25    15    39    1
    26    16    17    1
    27    16    40    1
    28    16    41    1
    29    17    18    2
    30    17    19   am
    31    19    20    1
    32    20    21    1
    33    20    42    1
    34    20    43    1
    35    21    22    1
    36    21    44    1
    37    21    45    1
    38    22    23    1
    39    22    30    1
    40    23    24   ar
    41    24    25   ar
    42    24    46    1
    43    25    26   ar
    44    25    47    1
    45    26    27    1
    46    26    28   ar
    47    28    29   ar
    48    28    48    1
    49    29    23   ar
    50    29    49    1
    51    30    31    1
    52    30    50    1
    53    30    51    1
    54    31    19    1
    55    31    52    1
    56    31    53    1
@<TRIPOS>MOLECULE
*****
 53 56 0 0 0
SMALL
GASTEIGER

@<TRIPOS>ATOM
      1 O          -1.1105   -2.3573   -1.9970 O.2     1  UNL11      -0.2754
      2 C          -1.2598   -1.8187   -3.1205 C.2     1  UNL11       0.2195
      3 C          -2.2322   -2.3308   -4.1440 C.3     1  UNL11       0.0725
      4 C          -2.3992   -3.7492   -3.9983 C.2     1  UNL11       0.1237
      5 N          -3.5629   -4.3352   -4.3162 N.2     1  UNL11      -0.0071
      6 N          -3.7315   -5.6416   -4.1893 N.am    1  UNL11      -0.0356
      7 C          -2.7808   -6.4582   -3.7461 C.2     1  UNL11       0.4383
      8 O          -2.9614   -7.7059   -3.6317 O.2     1  UNL11      -0.2116
      9 C          -1.5470   -5.9306   -3.3957 C.ar    1  UNL11       0.1004
     10 C          -0.5302   -6.7351   -2.9313 C.ar    1  UNL11      -0.0441
     11 C           0.6688   -6.1358   -2.6030 C.ar    1  UNL11      -0.0608
     12 C           0.8563   -4.7635   -2.7327 C.ar    1  UNL11      -0.0611
     13 C          -0.1758   -3.9770   -3.1999 C.ar    1  UNL11      -0.0518
     14 C          -1.3814   -4.5528   -3.5337 C.ar    1  UNL11       0.0194
     15 N          -0.4617   -0.6774   -3.4104 N.am    1  UNL11      -0.3064
     16 C           0.4920   -0.1359   -2.4689 C.3     1  UNL11       0.0883
     17 C          -0.1777    0.8756   -1.6345 C.2     1  UNL11       0.2328
     18 O           0.5022    1.8364   -1.1914 O.2     1  UNL11      -0.2739
     19 N          -1.5797    0.7907   -1.3173 N.am    1  UNL11      -0.2972
     20 C          -2.3506   -0.3266   -1.8167 C.3     1  UNL11       0.0305
     21 C          -3.6674    0.2635   -2.3441 C.3     1  UNL11       0.0280
     22 N          -4.3576    0.8781   -1.2248 N.pl3   1  UNL11      -0.3269
     23 C          -5.7672    1.0415   -1.2682 C.ar    1  UNL11       0.0299
     24 C          -6.5700    1.0255   -0.1489 C.ar    1  UNL11      -0.0379
     25 C          -7.9426    1.1943   -0.2220 C.ar    1  UNL11      -0.0247
     26 C          -8.5683    1.3873   -1.4329 C.ar    1  UNL11       0.1235
     27 F          -9.9270    1.5546   -1.5126 F       1  UNL11      -0.2055
     28 C          -7.7917    1.4083   -2.5718 C.ar    1  UNL11      -0.0247
     29 C          -6.4144    1.2374   -2.4816 C.ar    1  UNL11      -0.0379
     30 C          -3.6153    1.3312   -0.0667 C.3     1  UNL11       0.0280
     31 C          -2.2206    1.7857   -0.5215 C.3     1  UNL11       0.0305
     32 H          -1.7616   -2.1070   -5.1251 H       1  UNL11       0.0424
     33 H          -3.1068   -1.6881   -4.0722 H       1  UNL11       0.0424
     34 H          -4.6624   -6.0409   -4.4536 H       1  UNL11       0.4829
     35 H          -0.7171   -7.7917   -2.8462 H       1  UNL11       0.0627
     36 H           1.4541   -6.7649   -2.2430 H       1  UNL11       0.0618
     37 H           1.8029   -4.3195   -2.4696 H       1  UNL11       0.0618
     38 H          -0.0786   -2.9012   -3.3186 H       1  UNL11       0.0624
     39 H          -0.5554   -0.1962   -4.3401 H       1  UNL11       0.1492
     40 H           1.3303    0.3928   -2.9930 H       1  UNL11       0.0558
     41 H           0.9620   -0.9436   -1.8778 H       1  UNL11       0.0558
     42 H          -1.8360   -0.8665   -2.6209 H       1  UNL11       0.0480
     43 H          -2.6489   -0.9952   -0.9823 H       1  UNL11       0.0480
     44 H          -3.3805    1.0684   -3.0476 H       1  UNL11       0.0479
     45 H          -4.2541   -0.5541   -2.8172 H       1  UNL11       0.0479
     46 H          -6.0813    0.8700    0.8191 H       1  UNL11       0.0637
     47 H          -8.5398    1.1769    0.6671 H       1  UNL11       0.0647
     48 H          -8.2799    1.5579   -3.5077 H       1  UNL11       0.0647
     49 H          -5.8259    1.2586   -3.3764 H       1  UNL11       0.0637
     50 H          -3.4940    0.4608    0.6120 H       1  UNL11       0.0479
     51 H          -4.0813    2.1963    0.4389 H       1  UNL11       0.0479
     52 H          -2.3625    2.7479   -1.0169 H       1  UNL11       0.0480
     53 H          -1.6445    1.9276    0.4295 H       1  UNL11       0.0480
@<TRIPOS>BOND
     1     1     2    2
     2     2     3    1
     3     2    15   am
     4     3     4    1
     5     3    32    1
     6     3    33    1
     7     4     5    2
     8     5     6    1
     9     6     7   am
    10     6    34    1
    11     7     8    2
    12     7     9    1
    13     9    10   ar
    14    10    11   ar
    15    10    35    1
    16    11    12   ar
    17    11    36    1
    18    12    13   ar
    19    12    37    1
    20    13    14   ar
    21    13    38    1
    22    14     4    1
    23    14     9   ar
    24    15    16    1
    25    15    39    1
    26    16    17    1
    27    16    40    1
    28    16    41    1
    29    17    18    2
    30    17    19   am
    31    19    20    1
    32    20    21    1
    33    20    42    1
    34    20    43    1
    35    21    22    1
    36    21    44    1
    37    21    45    1
    38    22    23    1
    39    22    30    1
    40    23    24   ar
    41    24    25   ar
    42    24    46    1
    43    25    26   ar
    44    25    47    1
    45    26    27    1
    46    26    28   ar
    47    28    29   ar
    48    28    48    1
    49    29    23   ar
    50    29    49    1
    51    30    31    1
    52    30    50    1
    53    30    51    1
    54    31    19    1
    55    31    52    1
    56    31    53    1
