@<TRIPOS>MOLECULE
*****
 50 53 0 0 0
SMALL
GASTEIGER

@<TRIPOS>ATOM
      1 O           4.2790   -0.3093    1.6507 O.2     1  UNL11      -0.2751
      2 C           3.4530   -0.9381    0.9480 C.2     1  UNL11       0.2226
      3 C           3.8595   -2.2445    0.3033 C.3     1  UNL11       0.0495
      4 C           3.7449   -2.1659   -1.1598 C.ar    1  UNL11      -0.0386
      5 C           4.5615   -2.8858   -2.0032 C.ar    1  UNL11      -0.0581
      6 C           4.4576   -2.8199   -3.3758 C.ar    1  UNL11      -0.0615
      7 C           3.5122   -2.0135   -3.9723 C.ar    1  UNL11      -0.0617
      8 C           2.6852   -1.2848   -3.1438 C.ar    1  UNL11      -0.0615
      9 C           2.7909   -1.3520   -1.7708 C.ar    1  UNL11      -0.0581
     10 N           2.1622   -0.4319    0.7630 N.am    1  UNL11      -0.2701
     11 C           1.1107   -1.0132    0.0199 C.ar    1  UNL11       0.1252
     12 C           1.0978   -1.3103   -1.3106 C.ar    1  UNL11      -0.0215
     13 C           0.0171   -1.8765   -1.9634 C.ar    1  UNL11      -0.0568
     14 C          -1.1384   -2.1684   -1.2329 C.ar    1  UNL11      -0.0399
     15 C          -1.1106   -1.8653    0.0970 C.ar    1  UNL11       0.0494
     16 C          -2.2999   -2.1256    0.9422 C.3     1  UNL11       0.0380
     17 C          -3.4594   -1.3684    0.4169 C.2     1  UNL11       0.1165
     18 N          -4.0842   -0.4399    1.2068 N.2     1  UNL11      -0.0076
     19 N          -5.0740    0.2621    0.7392 N.am    1  UNL11      -0.0358
     20 C          -5.5540    0.1457   -0.5104 C.2     1  UNL11       0.4340
     21 O          -6.5137    0.8367   -0.9411 O.2     1  UNL11      -0.2120
     22 C          -4.9565   -0.7829   -1.3549 C.2     1  UNL11       0.0740
     23 C          -3.9114   -1.5229   -0.8529 C.2     1  UNL11      -0.0072
     24 C          -3.3326   -2.5407   -1.7973 C.3     1  UNL11      -0.0252
     25 C          -4.4625   -3.2797   -2.4745 C.3     1  UNL11      -0.0487
     26 C          -5.5217   -2.4181   -3.0561 C.3     1  UNL11      -0.0484
     27 C          -5.3884   -0.9722   -2.7410 C.3     1  UNL11      -0.0176
     28 N          -0.0378   -1.3157    0.6896 N.ar    1  UNL11      -0.2364
     29 H           4.8779   -2.4756    0.6267 H       1  UNL11       0.0407
     30 H           3.1800   -3.0072    0.7476 H       1  UNL11       0.0407
     31 H           5.3095   -3.5263   -1.5378 H       1  UNL11       0.0620
     32 H           5.1063   -3.3907   -4.0482 H       1  UNL11       0.0618
     33 H           3.4279   -1.9605   -5.0614 H       1  UNL11       0.0618
     34 H           1.9386   -0.6498   -3.5969 H       1  UNL11       0.0618
     35 H           2.1540   -0.7895   -1.0915 H       1  UNL11       0.0620
     36 H           1.9912    0.5081    1.2556 H       1  UNL11       0.1562
     37 H           1.9704   -1.0990   -1.9019 H       1  UNL11       0.0652
     38 H           0.0588   -2.0933   -3.0230 H       1  UNL11       0.0619
     39 H          -1.9705   -2.6191   -1.7655 H       1  UNL11       0.0636
     40 H          -2.0636   -1.6775    1.9585 H       1  UNL11       0.0394
     41 H          -2.4901   -3.1898    1.1337 H       1  UNL11       0.0394
     42 H          -5.5666    0.9834    1.3395 H       1  UNL11       0.4828
     43 H          -2.8338   -3.3120   -1.1605 H       1  UNL11       0.0314
     44 H          -2.6716   -2.0461   -2.5045 H       1  UNL11       0.0314
     45 H          -3.9780   -3.8974   -3.2829 H       1  UNL11       0.0268
     46 H          -4.8782   -4.0112   -1.7309 H       1  UNL11       0.0268
     47 H          -5.5331   -2.5178   -4.1766 H       1  UNL11       0.0269
     48 H          -6.5198   -2.7646   -2.6629 H       1  UNL11       0.0269
     49 H          -4.6528   -0.5131   -3.4336 H       1  UNL11       0.0316
     50 H          -6.3927   -0.4965   -2.8971 H       1  UNL11       0.0316
@<TRIPOS>BOND
     1     1     2    2
     2     2     3    1
     3     2    10   am
     4     3     4    1
     5     3    29    1
     6     3    30    1
     7     4     5   ar
     8     5     6   ar
     9     5    31    1
    10     6     7   ar
    11     6    32    1
    12     7     8   ar
    13     7    33    1
    14     8     9   ar
    15     8    34    1
    16     9     4   ar
    17     9    35    1
    18    10    11    1
    19    10    36    1
    20    11    12   ar
    21    12    13   ar
    22    12    37    1
    23    13    14   ar
    24    13    38    1
    25    14    15   ar
    26    14    39    1
    27    15    16    1
    28    15    28   ar
    29    16    17    1
    30    16    40    1
    31    16    41    1
    32    17    18    2
    33    18    19    1
    34    19    20   am
    35    19    42    1
    36    20    21    2
    37    20    22    1
    38    22    23    2
    39    23    24    1
    40    23    17    1
    41    24    25    1
    42    24    43    1
    43    24    44    1
    44    25    26    1
    45    25    45    1
    46    25    46    1
    47    26    27    1
    48    26    47    1
    49    26    48    1
    50    27    22    1
    51    27    49    1
    52    27    50    1
    53    28    11   ar
@<TRIPOS>MOLECULE
*****
 50 53 0 0 0
SMALL
GASTEIGER

@<TRIPOS>ATOM
      1 O           4.0570   -0.4365    2.0643 O.2     1  UNL11      -0.2751
      2 C           3.1975   -1.0938    1.4314 C.2     1  UNL11       0.2226
      3 C           3.2861   -2.6032    1.3953 C.3     1  UNL11       0.0495
      4 C           3.9142   -3.1217    2.6187 C.ar    1  UNL11      -0.0386
      5 C           3.6002   -4.3559    3.1428 C.ar    1  UNL11      -0.0581
      6 C           4.1875   -4.8500    4.2874 C.ar    1  UNL11      -0.0615
      7 C           5.1327   -4.1132    4.9682 C.ar    1  UNL11      -0.0617
      8 C           5.4602   -2.8745    4.4583 C.ar    1  UNL11      -0.0615
      9 C           4.8712   -2.3818    3.3132 C.ar    1  UNL11      -0.0581
     10 N           2.1622   -0.4319    0.7630 N.am    1  UNL11      -0.2701
     11 C           1.1107   -1.0132    0.0199 C.ar    1  UNL11       0.1252
     12 C           1.0978   -1.3103   -1.3106 C.ar    1  UNL11      -0.0215
     13 C           0.0171   -1.8765   -1.9634 C.ar    1  UNL11      -0.0568
     14 C          -1.1384   -2.1684   -1.2329 C.ar    1  UNL11      -0.0399
     15 C          -1.1106   -1.8653    0.0970 C.ar    1  UNL11       0.0494
     16 C          -2.2999   -2.1256    0.9422 C.3     1  UNL11       0.0380
     17 C          -3.5279   -2.0145    0.1215 C.2     1  UNL11       0.1165
     18 N          -3.7118   -2.8478   -0.9500 N.2     1  UNL11      -0.0076
     19 N          -4.8069   -2.7885   -1.6489 N.am    1  UNL11      -0.0358
     20 C          -5.8165   -1.9396   -1.3937 C.2     1  UNL11       0.4340
     21 O          -6.8679   -1.9005   -2.0845 O.2     1  UNL11      -0.2120
     22 C          -5.6820   -1.0705   -0.3171 C.2     1  UNL11       0.0740
     23 C          -4.5203   -1.1378    0.4164 C.2     1  UNL11      -0.0072
     24 C          -4.4126   -0.1455    1.5419 C.3     1  UNL11      -0.0252
     25 C          -4.8593    1.2094    1.0455 C.3     1  UNL11      -0.0487
     26 C          -6.1555    1.2214    0.3232 C.3     1  UNL11      -0.0484
     27 C          -6.7320   -0.1224    0.0598 C.3     1  UNL11      -0.0176
     28 N          -0.0378   -1.3157    0.6896 N.ar    1  UNL11      -0.2364
     29 H           2.2758   -2.9952    1.2508 H       1  UNL11       0.0407
     30 H           3.8750   -2.8341    0.4784 H       1  UNL11       0.0407
     31 H           2.8552   -4.9438    2.6083 H       1  UNL11       0.0620
     32 H           3.9388   -5.8306    4.7062 H       1  UNL11       0.0618
     33 H           5.6003   -4.5041    5.8762 H       1  UNL11       0.0618
     34 H           6.2003   -2.2864    4.9802 H       1  UNL11       0.0618
     35 H           5.1081   -1.4093    2.8873 H       1  UNL11       0.0620
     36 H           2.2084    0.6388    0.8460 H       1  UNL11       0.1562
     37 H           1.9704   -1.0990   -1.9019 H       1  UNL11       0.0652
     38 H           0.0588   -2.0933   -3.0230 H       1  UNL11       0.0619
     39 H          -1.9705   -2.6191   -1.7655 H       1  UNL11       0.0636
     40 H          -2.3420   -1.2733    1.6914 H       1  UNL11       0.0394
     41 H          -2.2288   -3.0385    1.5480 H       1  UNL11       0.0394
     42 H          -4.9619   -3.4270   -2.4805 H       1  UNL11       0.4828
     43 H          -3.3211   -0.0233    1.7492 H       1  UNL11       0.0314
     44 H          -4.9949   -0.4940    2.3910 H       1  UNL11       0.0314
     45 H          -4.9202    1.8620    1.9623 H       1  UNL11       0.0268
     46 H          -4.0265    1.6287    0.4199 H       1  UNL11       0.0268
     47 H          -6.9201    1.8065    0.9051 H       1  UNL11       0.0269
     48 H          -6.0057    1.7317   -0.6709 H       1  UNL11       0.0269
     49 H          -7.2572   -0.4800    0.9696 H       1  UNL11       0.0316
     50 H          -7.4708   -0.0168   -0.7783 H       1  UNL11       0.0316
@<TRIPOS>BOND
     1     1     2    2
     2     2     3    1
     3     2    10   am
     4     3     4    1
     5     3    29    1
     6     3    30    1
     7     4     5   ar
     8     5     6   ar
     9     5    31    1
    10     6     7   ar
    11     6    32    1
    12     7     8   ar
    13     7    33    1
    14     8     9   ar
    15     8    34    1
    16     9     4   ar
    17     9    35    1
    18    10    11    1
    19    10    36    1
    20    11    12   ar
    21    12    13   ar
    22    12    37    1
    23    13    14   ar
    24    13    38    1
    25    14    15   ar
    26    14    39    1
    27    15    16    1
    28    15    28   ar
    29    16    17    1
    30    16    40    1
    31    16    41    1
    32    17    18    2
    33    18    19    1
    34    19    20   am
    35    19    42    1
    36    20    21    2
    37    20    22    1
    38    22    23    2
    39    23    24    1
    40    23    17    1
    41    24    25    1
    42    24    43    1
    43    24    44    1
    44    25    26    1
    45    25    45    1
    46    25    46    1
    47    26    27    1
    48    26    47    1
    49    26    48    1
    50    27    22    1
    51    27    49    1
    52    27    50    1
    53    28    11   ar
@<TRIPOS>MOLECULE
*****
 50 53 0 0 0
SMALL
GASTEIGER

@<TRIPOS>ATOM
      1 O           1.0843    1.4540    1.5150 O.2     1  UNL11      -0.2751
      2 C           2.1323    0.7669    1.4832 C.2     1  UNL11       0.2226
      3 C           3.3612    1.2406    2.2267 C.3     1  UNL11       0.0495
      4 C           4.4883    1.4401    1.3047 C.ar    1  UNL11      -0.0386
      5 C           5.4669    2.3826    1.5295 C.ar    1  UNL11      -0.0581
      6 C           6.5283    2.5730    0.6714 C.ar    1  UNL11      -0.0615
      7 C           6.6557    1.8117   -0.4705 C.ar    1  UNL11      -0.0617
      8 C           5.6851    0.8626   -0.7125 C.ar    1  UNL11      -0.0615
      9 C           4.6239    0.6739    0.1472 C.ar    1  UNL11      -0.0581
     10 N           2.1622   -0.4319    0.7630 N.am    1  UNL11      -0.2701
     11 C           1.1107   -1.0132    0.0199 C.ar    1  UNL11       0.1252
     12 C           1.0978   -1.3103   -1.3106 C.ar    1  UNL11      -0.0215
     13 C           0.0171   -1.8765   -1.9634 C.ar    1  UNL11      -0.0568
     14 C          -1.1384   -2.1684   -1.2329 C.ar    1  UNL11      -0.0399
     15 C          -1.1106   -1.8653    0.0970 C.ar    1  UNL11       0.0494
     16 C          -2.2999   -2.1256    0.9422 C.3     1  UNL11       0.0380
     17 C          -3.4594   -1.3684    0.4169 C.2     1  UNL11       0.1165
     18 N          -4.5847   -2.0357    0.0111 N.2     1  UNL11      -0.0076
     19 N          -5.6244   -1.3770   -0.4088 N.am    1  UNL11      -0.0358
     20 C          -5.6871   -0.0368   -0.4794 C.2     1  UNL11       0.4340
     21 O          -6.7053    0.5792   -0.8893 O.2     1  UNL11      -0.2120
     22 C          -4.5718    0.6906   -0.0801 C.2     1  UNL11       0.0740
     23 C          -3.4752   -0.0129    0.3612 C.2     1  UNL11      -0.0072
     24 C          -2.2841    0.8244    0.7393 C.3     1  UNL11      -0.0252
     25 C          -2.0695    1.8788   -0.3208 C.3     1  UNL11      -0.0487
     26 C          -3.2801    2.6487   -0.6999 C.3     1  UNL11      -0.0484
     27 C          -4.5446    2.1542   -0.0965 C.3     1  UNL11      -0.0176
     28 N          -0.0378   -1.3157    0.6896 N.ar    1  UNL11      -0.2364
     29 H           3.0972    2.1567    2.7619 H       1  UNL11       0.0407
     30 H           3.5607    0.4491    2.9848 H       1  UNL11       0.0407
     31 H           5.3728    2.9863    2.4312 H       1  UNL11       0.0620
     32 H           7.3070    3.3223    0.8477 H       1  UNL11       0.0618
     33 H           7.4978    1.9610   -1.1522 H       1  UNL11       0.0618
     34 H           5.7727    0.2575   -1.6025 H       1  UNL11       0.0618
     35 H           3.8431   -0.0657   -0.0166 H       1  UNL11       0.0620
     36 H           3.1088   -0.9394    0.8065 H       1  UNL11       0.1562
     37 H           1.9704   -1.0990   -1.9019 H       1  UNL11       0.0652
     38 H           0.0588   -2.0933   -3.0230 H       1  UNL11       0.0619
     39 H          -1.9705   -2.6191   -1.7655 H       1  UNL11       0.0636
     40 H          -2.0636   -1.6775    1.9585 H       1  UNL11       0.0394
     41 H          -2.4901   -3.1898    1.1337 H       1  UNL11       0.0394
     42 H          -6.5013   -1.8807   -0.7261 H       1  UNL11       0.4828
     43 H          -1.3918    0.1564    0.6564 H       1  UNL11       0.0314
     44 H          -2.4373    1.2489    1.7282 H       1  UNL11       0.0314
     45 H          -1.2844    2.5713    0.0965 H       1  UNL11       0.0268
     46 H          -1.5994    1.3732   -1.2064 H       1  UNL11       0.0268
     47 H          -3.1649    3.7273   -0.4014 H       1  UNL11       0.0269
     48 H          -3.3944    2.6053   -1.8206 H       1  UNL11       0.0269
     49 H          -4.6346    2.5470    0.9375 H       1  UNL11       0.0316
     50 H          -5.3932    2.5457   -0.7177 H       1  UNL11       0.0316
@<TRIPOS>BOND
     1     1     2    2
     2     2     3    1
     3     2    10   am
     4     3     4    1
     5     3    29    1
     6     3    30    1
     7     4     5   ar
     8     5     6   ar
     9     5    31    1
    10     6     7   ar
    11     6    32    1
    12     7     8   ar
    13     7    33    1
    14     8     9   ar
    15     8    34    1
    16     9     4   ar
    17     9    35    1
    18    10    11    1
    19    10    36    1
    20    11    12   ar
    21    12    13   ar
    22    12    37    1
    23    13    14   ar
    24    13    38    1
    25    14    15   ar
    26    14    39    1
    27    15    16    1
    28    15    28   ar
    29    16    17    1
    30    16    40    1
    31    16    41    1
    32    17    18    2
    33    18    19    1
    34    19    20   am
    35    19    42    1
    36    20    21    2
    37    20    22    1
    38    22    23    2
    39    23    24    1
    40    23    17    1
    41    24    25    1
    42    24    43    1
    43    24    44    1
    44    25    26    1
    45    25    45    1
    46    25    46    1
    47    26    27    1
    48    26    47    1
    49    26    48    1
    50    27    22    1
    51    27    49    1
    52    27    50    1
    53    28    11   ar
@<TRIPOS>MOLECULE
*****
 50 53 0 0 0
SMALL
GASTEIGER

@<TRIPOS>ATOM
      1 O           1.0843    1.4540    1.5150 O.2     1  UNL11      -0.2751
      2 C           2.1323    0.7669    1.4832 C.2     1  UNL11       0.2226
      3 C           3.3612    1.2406    2.2267 C.3     1  UNL11       0.0495
      4 C           4.4781    0.3024    2.0463 C.ar    1  UNL11      -0.0386
      5 C           5.0784   -0.3418    3.1052 C.ar    1  UNL11      -0.0581
      6 C           6.1236   -1.2253    2.9434 C.ar    1  UNL11      -0.0615
      7 C           6.6208   -1.5055    1.6887 C.ar    1  UNL11      -0.0617
      8 C           6.0322   -0.8698    0.6159 C.ar    1  UNL11      -0.0615
      9 C           4.9868    0.0140    0.7800 C.ar    1  UNL11      -0.0581
     10 N           2.1622   -0.4319    0.7630 N.am    1  UNL11      -0.2701
     11 C           1.1107   -1.0132    0.0199 C.ar    1  UNL11       0.1252
     12 C           1.0978   -1.3103   -1.3106 C.ar    1  UNL11      -0.0215
     13 C           0.0171   -1.8765   -1.9634 C.ar    1  UNL11      -0.0568
     14 C          -1.1384   -2.1684   -1.2329 C.ar    1  UNL11      -0.0399
     15 C          -1.1106   -1.8653    0.0970 C.ar    1  UNL11       0.0494
     16 C          -2.2999   -2.1256    0.9422 C.3     1  UNL11       0.0380
     17 C          -3.4594   -1.3684    0.4169 C.2     1  UNL11       0.1165
     18 N          -3.5468   -1.0940   -0.9223 N.2     1  UNL11      -0.0076
     19 N          -4.5830   -0.4695   -1.3994 N.am    1  UNL11      -0.0358
     20 C          -5.6200   -0.0541   -0.6527 C.2     1  UNL11       0.4340
     21 O          -6.6130    0.5486   -1.1372 O.2     1  UNL11      -0.2120
     22 C          -5.5825   -0.3063    0.7138 C.2     1  UNL11       0.0740
     23 C          -4.4827   -0.9657    1.2115 C.2     1  UNL11      -0.0072
     24 C          -4.4774   -1.1729    2.7014 C.3     1  UNL11      -0.0252
     25 C          -4.8990    0.1108    3.3765 C.3     1  UNL11      -0.0487
     26 C          -6.1332    0.7328    2.8361 C.3     1  UNL11      -0.0484
     27 C          -6.6706    0.0841    1.6121 C.3     1  UNL11      -0.0176
     28 N          -0.0378   -1.3157    0.6896 N.ar    1  UNL11      -0.2364
     29 H           3.6030    2.2452    1.8696 H       1  UNL11       0.0407
     30 H           3.0384    1.3257    3.2895 H       1  UNL11       0.0407
     31 H           4.6889   -0.1259    4.0991 H       1  UNL11       0.0620
     32 H           6.6029   -1.7379    3.7838 H       1  UNL11       0.0618
     33 H           7.4497   -2.2069    1.5585 H       1  UNL11       0.0618
     34 H           6.4101   -1.0807   -0.3733 H       1  UNL11       0.0618
     35 H           4.5026    0.5308   -0.0458 H       1  UNL11       0.0620
     36 H           3.1088   -0.9394    0.8065 H       1  UNL11       0.1562
     37 H           1.9704   -1.0990   -1.9019 H       1  UNL11       0.0652
     38 H           0.0588   -2.0933   -3.0230 H       1  UNL11       0.0619
     39 H          -1.9705   -2.6191   -1.7655 H       1  UNL11       0.0636
     40 H          -2.0636   -1.6775    1.9585 H       1  UNL11       0.0394
     41 H          -2.4901   -3.1898    1.1337 H       1  UNL11       0.0394
     42 H          -4.6633   -0.2505   -2.4332 H       1  UNL11       0.4828
     43 H          -3.4076   -1.3073    2.9958 H       1  UNL11       0.0314
     44 H          -5.1217   -2.0110    2.9543 H       1  UNL11       0.0314
     45 H          -5.0410   -0.1518    4.4632 H       1  UNL11       0.0268
     46 H          -4.0238    0.8133    3.3380 H       1  UNL11       0.0268
     47 H          -6.9490    0.7160    3.6106 H       1  UNL11       0.0269
     48 H          -5.9103    1.8089    2.5847 H       1  UNL11       0.0269
     49 H          -7.2628   -0.8089    1.9012 H       1  UNL11       0.0316
     50 H          -7.3411    0.8251    1.1014 H       1  UNL11       0.0316
@<TRIPOS>BOND
     1     1     2    2
     2     2     3    1
     3     2    10   am
     4     3     4    1
     5     3    29    1
     6     3    30    1
     7     4     5   ar
     8     5     6   ar
     9     5    31    1
    10     6     7   ar
    11     6    32    1
    12     7     8   ar
    13     7    33    1
    14     8     9   ar
    15     8    34    1
    16     9     4   ar
    17     9    35    1
    18    10    11    1
    19    10    36    1
    20    11    12   ar
    21    12    13   ar
    22    12    37    1
    23    13    14   ar
    24    13    38    1
    25    14    15   ar
    26    14    39    1
    27    15    16    1
    28    15    28   ar
    29    16    17    1
    30    16    40    1
    31    16    41    1
    32    17    18    2
    33    18    19    1
    34    19    20   am
    35    19    42    1
    36    20    21    2
    37    20    22    1
    38    22    23    2
    39    23    24    1
    40    23    17    1
    41    24    25    1
    42    24    43    1
    43    24    44    1
    44    25    26    1
    45    25    45    1
    46    25    46    1
    47    26    27    1
    48    26    47    1
    49    26    48    1
    50    27    22    1
    51    27    49    1
    52    27    50    1
    53    28    11   ar
@<TRIPOS>MOLECULE
*****
 50 53 0 0 0
SMALL
GASTEIGER

@<TRIPOS>ATOM
      1 O           2.3704    1.5511   -0.3808 O.2     1  UNL11      -0.2751
      2 C           2.7621    0.8145    0.5548 C.2     1  UNL11       0.2226
      3 C           3.8844    1.2805    1.4553 C.3     1  UNL11       0.0495
      4 C           5.0240    0.3543    1.3962 C.ar    1  UNL11      -0.0386
      5 C           4.8690   -0.9903    1.1419 C.ar    1  UNL11      -0.0581
      6 C           5.9330   -1.8640    1.0815 C.ar    1  UNL11      -0.0615
      7 C           7.2223   -1.4179    1.2776 C.ar    1  UNL11      -0.0617
      8 C           7.3973   -0.0743    1.5335 C.ar    1  UNL11      -0.0615
      9 C           6.3314    0.7982    1.5937 C.ar    1  UNL11      -0.0581
     10 N           2.1622   -0.4319    0.7630 N.am    1  UNL11      -0.2701
     11 C           1.1107   -1.0132    0.0199 C.ar    1  UNL11       0.1252
     12 C           1.0978   -1.3103   -1.3106 C.ar    1  UNL11      -0.0215
     13 C           0.0171   -1.8765   -1.9634 C.ar    1  UNL11      -0.0568
     14 C          -1.1384   -2.1684   -1.2329 C.ar    1  UNL11      -0.0399
     15 C          -1.1106   -1.8653    0.0970 C.ar    1  UNL11       0.0494
     16 C          -2.2999   -2.1256    0.9422 C.3     1  UNL11       0.0380
     17 C          -3.4594   -1.3684    0.4169 C.2     1  UNL11       0.1165
     18 N          -3.3991   -0.0030    0.3243 N.2     1  UNL11      -0.0076
     19 N          -4.3944    0.6667   -0.1779 N.am    1  UNL11      -0.0358
     20 C          -5.5260    0.1033   -0.6333 C.2     1  UNL11       0.4340
     21 O          -6.4765    0.7725   -1.1157 O.2     1  UNL11      -0.2120
     22 C          -5.6404   -1.2803   -0.5625 C.2     1  UNL11       0.0740
     23 C          -4.5844   -1.9818   -0.0287 C.2     1  UNL11      -0.0072
     24 C          -4.7818   -3.4703    0.0616 C.3     1  UNL11      -0.0252
     25 C          -6.1639   -3.7497    0.6033 C.3     1  UNL11      -0.0487
     26 C          -7.2650   -3.0122   -0.0645 C.3     1  UNL11      -0.0484
     27 C          -6.8212   -1.9943   -1.0516 C.3     1  UNL11      -0.0176
     28 N          -0.0378   -1.3157    0.6896 N.ar    1  UNL11      -0.2364
     29 H           4.1590    2.2943    1.1518 H       1  UNL11       0.0407
     30 H           3.4310    1.3404    2.4711 H       1  UNL11       0.0407
     31 H           3.8527   -1.3487    0.9843 H       1  UNL11       0.0620
     32 H           5.8121   -2.9335    0.8803 H       1  UNL11       0.0618
     33 H           8.0679   -2.1098    1.2293 H       1  UNL11       0.0618
     34 H           8.4020    0.2900    1.6876 H       1  UNL11       0.0618
     35 H           6.4374    1.8622    1.7939 H       1  UNL11       0.0620
     36 H           2.5741   -0.9772    1.5927 H       1  UNL11       0.1562
     37 H           1.9704   -1.0990   -1.9019 H       1  UNL11       0.0652
     38 H           0.0588   -2.0933   -3.0230 H       1  UNL11       0.0619
     39 H          -1.9705   -2.6191   -1.7655 H       1  UNL11       0.0636
     40 H          -2.0636   -1.6775    1.9585 H       1  UNL11       0.0394
     41 H          -2.4901   -3.1898    1.1337 H       1  UNL11       0.0394
     42 H          -4.3611    1.7231   -0.2550 H       1  UNL11       0.4828
     43 H          -4.0884   -3.8310    0.8605 H       1  UNL11       0.0314
     44 H          -4.6153   -3.9191   -0.9143 H       1  UNL11       0.0314
     45 H          -6.3150   -4.8604    0.4875 H       1  UNL11       0.0268
     46 H          -6.1371   -3.5530    1.7085 H       1  UNL11       0.0268
     47 H          -7.9431   -3.7297   -0.6040 H       1  UNL11       0.0269
     48 H          -7.8711   -2.4833    0.7253 H       1  UNL11       0.0269
     49 H          -6.5899   -2.4950   -2.0147 H       1  UNL11       0.0316
     50 H          -7.6688   -1.2743   -1.2015 H       1  UNL11       0.0316
@<TRIPOS>BOND
     1     1     2    2
     2     2     3    1
     3     2    10   am
     4     3     4    1
     5     3    29    1
     6     3    30    1
     7     4     5   ar
     8     5     6   ar
     9     5    31    1
    10     6     7   ar
    11     6    32    1
    12     7     8   ar
    13     7    33    1
    14     8     9   ar
    15     8    34    1
    16     9     4   ar
    17     9    35    1
    18    10    11    1
    19    10    36    1
    20    11    12   ar
    21    12    13   ar
    22    12    37    1
    23    13    14   ar
    24    13    38    1
    25    14    15   ar
    26    14    39    1
    27    15    16    1
    28    15    28   ar
    29    16    17    1
    30    16    40    1
    31    16    41    1
    32    17    18    2
    33    18    19    1
    34    19    20   am
    35    19    42    1
    36    20    21    2
    37    20    22    1
    38    22    23    2
    39    23    24    1
    40    23    17    1
    41    24    25    1
    42    24    43    1
    43    24    44    1
    44    25    26    1
    45    25    45    1
    46    25    46    1
    47    26    27    1
    48    26    47    1
    49    26    48    1
    50    27    22    1
    51    27    49    1
    52    27    50    1
    53    28    11   ar
@<TRIPOS>MOLECULE
*****
 50 53 0 0 0
SMALL
GASTEIGER

@<TRIPOS>ATOM
      1 O           3.3247    0.1151    2.6691 O.2     1  UNL11      -0.2751
      2 C           2.3408   -0.4628    2.1500 C.2     1  UNL11       0.2226
      3 C           1.3501   -1.1915    3.0304 C.3     1  UNL11       0.0495
      4 C           0.2625   -0.2962    3.4495 C.ar    1  UNL11      -0.0386
      5 C          -0.5794    0.3143    2.5467 C.ar    1  UNL11      -0.0581
      6 C          -1.6033    1.1521    2.9325 C.ar    1  UNL11      -0.0615
      7 C          -1.8307    1.4185    4.2656 C.ar    1  UNL11      -0.0617
      8 C          -0.9975    0.8160    5.1846 C.ar    1  UNL11      -0.0615
      9 C           0.0264   -0.0217    4.7966 C.ar    1  UNL11      -0.0581
     10 N           2.1622   -0.4319    0.7630 N.am    1  UNL11      -0.2701
     11 C           1.1107   -1.0132    0.0199 C.ar    1  UNL11       0.1252
     12 C           1.0978   -1.3103   -1.3106 C.ar    1  UNL11      -0.0215
     13 C           0.0171   -1.8765   -1.9634 C.ar    1  UNL11      -0.0568
     14 C          -1.1384   -2.1684   -1.2329 C.ar    1  UNL11      -0.0399
     15 C          -1.1106   -1.8653    0.0970 C.ar    1  UNL11       0.0494
     16 C          -2.2999   -2.1256    0.9422 C.3     1  UNL11       0.0380
     17 C          -2.0254   -1.6977    2.3333 C.2     1  UNL11       0.1165
     18 N          -0.7459   -1.7372    2.8209 N.2     1  UNL11      -0.0076
     19 N          -0.4880   -1.3208    4.0256 N.am    1  UNL11      -0.0358
     20 C          -1.4151   -0.8335    4.8672 C.2     1  UNL11       0.4340
     21 O          -1.1416   -0.4358    6.0295 O.2     1  UNL11      -0.2120
     22 C          -2.7310   -0.7714    4.4233 C.2     1  UNL11       0.0740
     23 C          -2.9965   -1.2151    3.1486 C.2     1  UNL11      -0.0072
     24 C          -4.4428   -1.1638    2.7385 C.3     1  UNL11      -0.0252
     25 C          -5.2918   -1.7009    3.8665 C.3     1  UNL11      -0.0487
     26 C          -5.0004   -1.1282    5.2041 C.3     1  UNL11      -0.0484
     27 C          -3.8127   -0.2368    5.2525 C.3     1  UNL11      -0.0176
     28 N          -0.0378   -1.3157    0.6896 N.ar    1  UNL11      -0.2364
     29 H           0.9818   -2.0581    2.4749 H       1  UNL11       0.0407
     30 H           1.9520   -1.5682    3.8887 H       1  UNL11       0.0407
     31 H          -0.4059    0.1064    1.4918 H       1  UNL11       0.0620
     32 H          -2.2733    1.6391    2.2165 H       1  UNL11       0.0618
     33 H          -2.6433    2.0825    4.5735 H       1  UNL11       0.0618
     34 H          -1.1646    1.0141    6.2328 H       1  UNL11       0.0618
     35 H           0.6998   -0.5107    5.4971 H       1  UNL11       0.0620
     36 H           2.9343    0.1018    0.2390 H       1  UNL11       0.1562
     37 H           1.9704   -1.0990   -1.9019 H       1  UNL11       0.0652
     38 H           0.0588   -2.0933   -3.0230 H       1  UNL11       0.0619
     39 H          -1.9705   -2.6191   -1.7655 H       1  UNL11       0.0636
     40 H          -2.4168   -3.2546    0.9758 H       1  UNL11       0.0394
     41 H          -3.2414   -1.7508    0.5197 H       1  UNL11       0.0394
     42 H           0.4972   -1.3462    4.4155 H       1  UNL11       0.4828
     43 H          -4.5626   -1.9110    1.9159 H       1  UNL11       0.0314
     44 H          -4.7068   -0.1460    2.4628 H       1  UNL11       0.0314
     45 H          -6.3575   -1.4804    3.5740 H       1  UNL11       0.0268
     46 H          -5.1920   -2.8193    3.8582 H       1  UNL11       0.0268
     47 H          -5.8813   -0.5339    5.5735 H       1  UNL11       0.0269
     48 H          -4.8226   -1.9766    5.9249 H       1  UNL11       0.0269
     49 H          -4.0994    0.7744    4.8964 H       1  UNL11       0.0316
     50 H          -3.4790   -0.1732    6.3221 H       1  UNL11       0.0316
@<TRIPOS>BOND
     1     1     2    2
     2     2     3    1
     3     2    10   am
     4     3     4    1
     5     3    29    1
     6     3    30    1
     7     4     5   ar
     8     5     6   ar
     9     5    31    1
    10     6     7   ar
    11     6    32    1
    12     7     8   ar
    13     7    33    1
    14     8     9   ar
    15     8    34    1
    16     9     4   ar
    17     9    35    1
    18    10    11    1
    19    10    36    1
    20    11    12   ar
    21    12    13   ar
    22    12    37    1
    23    13    14   ar
    24    13    38    1
    25    14    15   ar
    26    14    39    1
    27    15    16    1
    28    15    28   ar
    29    16    17    1
    30    16    40    1
    31    16    41    1
    32    17    18    2
    33    18    19    1
    34    19    20   am
    35    19    42    1
    36    20    21    2
    37    20    22    1
    38    22    23    2
    39    23    24    1
    40    23    17    1
    41    24    25    1
    42    24    43    1
    43    24    44    1
    44    25    26    1
    45    25    45    1
    46    25    46    1
    47    26    27    1
    48    26    47    1
    49    26    48    1
    50    27    22    1
    51    27    49    1
    52    27    50    1
    53    28    11   ar
@<TRIPOS>MOLECULE
*****
 50 53 0 0 0
SMALL
GASTEIGER

@<TRIPOS>ATOM
      1 O           4.2790   -0.3093    1.6507 O.2     1  UNL11      -0.2751
      2 C           3.4530   -0.9381    0.9480 C.2     1  UNL11       0.2226
      3 C           3.8595   -2.2445    0.3033 C.3     1  UNL11       0.0495
      4 C           3.0049   -3.3468    0.7667 C.ar    1  UNL11      -0.0386
      5 C           1.8426   -3.7013    0.1186 C.ar    1  UNL11      -0.0581
      6 C           1.0382   -4.7358    0.5452 C.ar    1  UNL11      -0.0615
      7 C           1.3716   -5.4728    1.6612 C.ar    1  UNL11      -0.0617
      8 C           2.5323   -5.1324    2.3234 C.ar    1  UNL11      -0.0615
      9 C           3.3355   -4.0969    1.8951 C.ar    1  UNL11      -0.0581
     10 N           2.1622   -0.4319    0.7630 N.am    1  UNL11      -0.2701
     11 C           1.1107   -1.0132    0.0199 C.ar    1  UNL11       0.1252
     12 C           1.0978   -1.3103   -1.3106 C.ar    1  UNL11      -0.0215
     13 C           0.0171   -1.8765   -1.9634 C.ar    1  UNL11      -0.0568
     14 C          -1.1384   -2.1684   -1.2329 C.ar    1  UNL11      -0.0399
     15 C          -1.1106   -1.8653    0.0970 C.ar    1  UNL11       0.0494
     16 C          -2.2999   -2.1256    0.9422 C.3     1  UNL11       0.0380
     17 C          -3.3795   -2.7127    0.1154 C.2     1  UNL11       0.1165
     18 N          -3.1778   -3.9068   -0.5248 N.2     1  UNL11      -0.0076
     19 N          -4.1349   -4.4524   -1.2158 N.am    1  UNL11      -0.0358
     20 C          -5.3588   -3.9166   -1.3585 C.2     1  UNL11       0.4340
     21 O          -6.2700   -4.4637   -2.0326 O.2     1  UNL11      -0.2120
     22 C          -5.6176   -2.7042   -0.7297 C.2     1  UNL11       0.0740
     23 C          -4.6001   -2.1322   -0.0021 C.2     1  UNL11      -0.0072
     24 C          -4.9242   -0.8015    0.6200 C.3     1  UNL11      -0.0252
     25 C          -5.6344    0.0567   -0.4001 C.3     1  UNL11      -0.0487
     26 C          -6.7673   -0.5996   -1.0986 C.3     1  UNL11      -0.0484
     27 C          -6.9240   -2.0473   -0.8032 C.3     1  UNL11      -0.0176
     28 N          -0.0378   -1.3157    0.6896 N.ar    1  UNL11      -0.2364
     29 H           3.8127   -2.1123   -0.7809 H       1  UNL11       0.0407
     30 H           4.9288   -2.3822    0.5836 H       1  UNL11       0.0407
     31 H           1.5745   -3.1238   -0.7651 H       1  UNL11       0.0620
     32 H           0.1133   -5.0189    0.0320 H       1  UNL11       0.0618
     33 H           0.7348   -6.2946    2.0006 H       1  UNL11       0.0618
     34 H           2.8072   -5.7021    3.1985 H       1  UNL11       0.0618
     35 H           4.2558   -3.8046    2.3962 H       1  UNL11       0.0620
     36 H           1.9912    0.5081    1.2556 H       1  UNL11       0.1562
     37 H           1.9704   -1.0990   -1.9019 H       1  UNL11       0.0652
     38 H           0.0588   -2.0933   -3.0230 H       1  UNL11       0.0619
     39 H          -1.9705   -2.6191   -1.7655 H       1  UNL11       0.0636
     40 H          -2.6747   -1.1065    1.2746 H       1  UNL11       0.0394
     41 H          -2.0804   -2.6688    1.8707 H       1  UNL11       0.0394
     42 H          -3.9923   -5.3756   -1.7163 H       1  UNL11       0.4828
     43 H          -3.9462   -0.2872    0.7883 H       1  UNL11       0.0314
     44 H          -5.5121   -0.9549    1.5213 H       1  UNL11       0.0314
     45 H          -5.9991    0.9601    0.1664 H       1  UNL11       0.0268
     46 H          -4.8591    0.4330   -1.1200 H       1  UNL11       0.0268
     47 H          -7.7360   -0.0952   -0.8286 H       1  UNL11       0.0269
     48 H          -6.6131   -0.4906   -2.2100 H       1  UNL11       0.0269
     49 H          -7.4640   -2.1681    0.1587 H       1  UNL11       0.0316
     50 H          -7.5332   -2.4988   -1.6305 H       1  UNL11       0.0316
@<TRIPOS>BOND
     1     1     2    2
     2     2     3    1
     3     2    10   am
     4     3     4    1
     5     3    29    1
     6     3    30    1
     7     4     5   ar
     8     5     6   ar
     9     5    31    1
    10     6     7   ar
    11     6    32    1
    12     7     8   ar
    13     7    33    1
    14     8     9   ar
    15     8    34    1
    16     9     4   ar
    17     9    35    1
    18    10    11    1
    19    10    36    1
    20    11    12   ar
    21    12    13   ar
    22    12    37    1
    23    13    14   ar
    24    13    38    1
    25    14    15   ar
    26    14    39    1
    27    15    16    1
    28    15    28   ar
    29    16    17    1
    30    16    40    1
    31    16    41    1
    32    17    18    2
    33    18    19    1
    34    19    20   am
    35    19    42    1
    36    20    21    2
    37    20    22    1
    38    22    23    2
    39    23    24    1
    40    23    17    1
    41    24    25    1
    42    24    43    1
    43    24    44    1
    44    25    26    1
    45    25    45    1
    46    25    46    1
    47    26    27    1
    48    26    47    1
    49    26    48    1
    50    27    22    1
    51    27    49    1
    52    27    50    1
    53    28    11   ar
@<TRIPOS>MOLECULE
*****
 50 53 0 0 0
SMALL
GASTEIGER

@<TRIPOS>ATOM
      1 O           3.3896    1.2954    1.6538 O.2     1  UNL11      -0.2751
      2 C           2.3997    0.9298    0.9773 C.2     1  UNL11       0.2226
      3 C           1.4660    1.9676    0.3952 C.3     1  UNL11       0.0495
      4 C           0.8672    1.4902   -0.8593 C.ar    1  UNL11      -0.0386
      5 C           0.0825    0.3601   -0.9186 C.ar    1  UNL11      -0.0581
      6 C          -0.4851   -0.0915   -2.0904 C.ar    1  UNL11      -0.0615
      7 C          -0.2858    0.5840   -3.2753 C.ar    1  UNL11      -0.0617
      8 C           0.4974    1.7183   -3.2355 C.ar    1  UNL11      -0.0615
      9 C           1.0645    2.1683   -2.0622 C.ar    1  UNL11      -0.0581
     10 N           2.1622   -0.4319    0.7630 N.am    1  UNL11      -0.2701
     11 C           1.1107   -1.0132    0.0199 C.ar    1  UNL11       0.1252
     12 C           1.0978   -1.3103   -1.3106 C.ar    1  UNL11      -0.0215
     13 C           0.0171   -1.8765   -1.9634 C.ar    1  UNL11      -0.0568
     14 C          -1.1384   -2.1684   -1.2329 C.ar    1  UNL11      -0.0399
     15 C          -1.1106   -1.8653    0.0970 C.ar    1  UNL11       0.0494
     16 C          -2.2999   -2.1256    0.9422 C.3     1  UNL11       0.0380
     17 C          -2.2152   -3.4891    1.5145 C.2     1  UNL11       0.1165
     18 N          -3.1929   -4.4081    1.2389 N.2     1  UNL11      -0.0076
     19 N          -3.1040   -5.6211    1.6995 N.am    1  UNL11      -0.0358
     20 C          -2.0864   -6.0651    2.4562 C.2     1  UNL11       0.4340
     21 O          -2.0218   -7.2446    2.8907 O.2     1  UNL11      -0.2120
     22 C          -1.0665   -5.1731    2.7668 C.2     1  UNL11       0.0740
     23 C          -1.1682   -3.8915    2.2776 C.2     1  UNL11      -0.0072
     24 C          -0.0583   -2.9597    2.6809 C.3     1  UNL11      -0.0252
     25 C           0.2177   -3.1350    4.1556 C.3     1  UNL11      -0.0487
     26 C           0.3864   -4.5396    4.6039 C.3     1  UNL11      -0.0484
     27 C           0.0976   -5.5618    3.5650 C.3     1  UNL11      -0.0176
     28 N          -0.0378   -1.3157    0.6896 N.ar    1  UNL11      -0.2364
     29 H           0.7116    2.2017    1.1510 H       1  UNL11       0.0407
     30 H           2.0977    2.8740    0.2526 H       1  UNL11       0.0407
     31 H          -0.0802   -0.1772    0.0147 H       1  UNL11       0.0620
     32 H          -1.1086   -0.9901   -2.1401 H       1  UNL11       0.0618
     33 H          -0.7361    0.2275   -4.2059 H       1  UNL11       0.0618
     34 H           0.6609    2.2589   -4.1558 H       1  UNL11       0.0618
     35 H           1.6867    3.0583   -1.9991 H       1  UNL11       0.0620
     36 H           2.8815   -1.0762    1.2352 H       1  UNL11       0.1562
     37 H           1.9704   -1.0990   -1.9019 H       1  UNL11       0.0652
     38 H           0.0588   -2.0933   -3.0230 H       1  UNL11       0.0619
     39 H          -1.9705   -2.6191   -1.7655 H       1  UNL11       0.0636
     40 H          -3.1885   -2.1339    0.2352 H       1  UNL11       0.0394
     41 H          -2.5169   -1.3313    1.6684 H       1  UNL11       0.0394
     42 H          -3.8533   -6.3419    1.4943 H       1  UNL11       0.4828
     43 H          -0.4701   -1.9244    2.5930 H       1  UNL11       0.0314
     44 H           0.8172   -3.1489    2.0650 H       1  UNL11       0.0314
     45 H           1.1575   -2.5475    4.3591 H       1  UNL11       0.0268
     46 H          -0.6035   -2.6119    4.7150 H       1  UNL11       0.0268
     47 H           1.4398   -4.7109    4.9597 H       1  UNL11       0.0269
     48 H          -0.3108   -4.7241    5.4704 H       1  UNL11       0.0269
     49 H           0.9854   -5.6781    2.9094 H       1  UNL11       0.0316
     50 H          -0.1058   -6.5323    4.0906 H       1  UNL11       0.0316
@<TRIPOS>BOND
     1     1     2    2
     2     2     3    1
     3     2    10   am
     4     3     4    1
     5     3    29    1
     6     3    30    1
     7     4     5   ar
     8     5     6   ar
     9     5    31    1
    10     6     7   ar
    11     6    32    1
    12     7     8   ar
    13     7    33    1
    14     8     9   ar
    15     8    34    1
    16     9     4   ar
    17     9    35    1
    18    10    11    1
    19    10    36    1
    20    11    12   ar
    21    12    13   ar
    22    12    37    1
    23    13    14   ar
    24    13    38    1
    25    14    15   ar
    26    14    39    1
    27    15    16    1
    28    15    28   ar
    29    16    17    1
    30    16    40    1
    31    16    41    1
    32    17    18    2
    33    18    19    1
    34    19    20   am
    35    19    42    1
    36    20    21    2
    37    20    22    1
    38    22    23    2
    39    23    24    1
    40    23    17    1
    41    24    25    1
    42    24    43    1
    43    24    44    1
    44    25    26    1
    45    25    45    1
    46    25    46    1
    47    26    27    1
    48    26    47    1
    49    26    48    1
    50    27    22    1
    51    27    49    1
    52    27    50    1
    53    28    11   ar
@<TRIPOS>MOLECULE
*****
 50 53 0 0 0
SMALL
GASTEIGER

@<TRIPOS>ATOM
      1 O           1.6304    1.7867    0.4821 O.2     1  UNL11      -0.2751
      2 C           2.3997    0.9298    0.9773 C.2     1  UNL11       0.2226
      3 C           3.5833    1.3762    1.8065 C.3     1  UNL11       0.0495
      4 C           4.3612    0.2208    2.2757 C.ar    1  UNL11      -0.0386
      5 C           4.9601   -0.6660    1.4089 C.ar    1  UNL11      -0.0581
      6 C           5.6938   -1.7494    1.8415 C.ar    1  UNL11      -0.0615
      7 C           5.8610   -1.9943    3.1876 C.ar    1  UNL11      -0.0617
      8 C           5.2684   -1.1168    4.0710 C.ar    1  UNL11      -0.0615
      9 C           4.5346   -0.0336    3.6361 C.ar    1  UNL11      -0.0581
     10 N           2.1622   -0.4319    0.7630 N.am    1  UNL11      -0.2701
     11 C           1.1107   -1.0132    0.0199 C.ar    1  UNL11       0.1252
     12 C           1.0978   -1.3103   -1.3106 C.ar    1  UNL11      -0.0215
     13 C           0.0171   -1.8765   -1.9634 C.ar    1  UNL11      -0.0568
     14 C          -1.1384   -2.1684   -1.2329 C.ar    1  UNL11      -0.0399
     15 C          -1.1106   -1.8653    0.0970 C.ar    1  UNL11       0.0494
     16 C          -2.2999   -2.1256    0.9422 C.3     1  UNL11       0.0380
     17 C          -2.2152   -3.4891    1.5145 C.2     1  UNL11       0.1165
     18 N          -2.7586   -4.5493    0.8384 N.2     1  UNL11      -0.0076
     19 N          -2.6495   -5.7561    1.3106 N.am    1  UNL11      -0.0358
     20 C          -2.0192   -6.0604    2.4575 C.2     1  UNL11       0.4340
     21 O          -1.9261   -7.2369    2.8948 O.2     1  UNL11      -0.2120
     22 C          -1.4496   -5.0215    3.1845 C.2     1  UNL11       0.0740
     23 C          -1.5704   -3.7477    2.6798 C.2     1  UNL11      -0.0072
     24 C          -0.9723   -2.6602    3.5298 C.3     1  UNL11      -0.0252
     25 C          -1.3649   -2.8916    4.9699 C.3     1  UNL11      -0.0487
     26 C          -1.1430   -4.2705    5.4712 C.3     1  UNL11      -0.0484
     27 C          -0.7216   -5.2478    4.4344 C.3     1  UNL11      -0.0176
     28 N          -0.0378   -1.3157    0.6896 N.ar    1  UNL11      -0.2364
     29 H           4.1821    2.0580    1.1966 H       1  UNL11       0.0407
     30 H           3.1420    1.9656    2.6423 H       1  UNL11       0.0407
     31 H           4.8331   -0.4770    0.3438 H       1  UNL11       0.0620
     32 H           6.1702   -2.4562    1.1542 H       1  UNL11       0.0618
     33 H           6.4436   -2.8531    3.5326 H       1  UNL11       0.0618
     34 H           5.3922   -1.2949    5.1287 H       1  UNL11       0.0618
     35 H           4.0553    0.6752    4.3079 H       1  UNL11       0.0620
     36 H           2.8815   -1.0762    1.2352 H       1  UNL11       0.1562
     37 H           1.9704   -1.0990   -1.9019 H       1  UNL11       0.0652
     38 H           0.0588   -2.0933   -3.0230 H       1  UNL11       0.0619
     39 H          -1.9705   -2.6191   -1.7655 H       1  UNL11       0.0636
     40 H          -3.1885   -2.1339    0.2352 H       1  UNL11       0.0394
     41 H          -2.5169   -1.3313    1.6684 H       1  UNL11       0.0394
     42 H          -3.0655   -6.5852    0.7980 H       1  UNL11       0.4828
     43 H          -1.4956   -1.7148    3.2440 H       1  UNL11       0.0314
     44 H           0.1050   -2.6382    3.3871 H       1  UNL11       0.0314
     45 H          -0.7561   -2.1579    5.5707 H       1  UNL11       0.0268
     46 H          -2.4356   -2.5720    5.0811 H       1  UNL11       0.0268
     47 H          -0.3541   -4.2709    6.2733 H       1  UNL11       0.0269
     48 H          -2.1047   -4.6447    5.9251 H       1  UNL11       0.0269
     49 H           0.3701   -5.1492    4.2608 H       1  UNL11       0.0316
     50 H          -0.9441   -6.2756    4.8260 H       1  UNL11       0.0316
@<TRIPOS>BOND
     1     1     2    2
     2     2     3    1
     3     2    10   am
     4     3     4    1
     5     3    29    1
     6     3    30    1
     7     4     5   ar
     8     5     6   ar
     9     5    31    1
    10     6     7   ar
    11     6    32    1
    12     7     8   ar
    13     7    33    1
    14     8     9   ar
    15     8    34    1
    16     9     4   ar
    17     9    35    1
    18    10    11    1
    19    10    36    1
    20    11    12   ar
    21    12    13   ar
    22    12    37    1
    23    13    14   ar
    24    13    38    1
    25    14    15   ar
    26    14    39    1
    27    15    16    1
    28    15    28   ar
    29    16    17    1
    30    16    40    1
    31    16    41    1
    32    17    18    2
    33    18    19    1
    34    19    20   am
    35    19    42    1
    36    20    21    2
    37    20    22    1
    38    22    23    2
    39    23    24    1
    40    23    17    1
    41    24    25    1
    42    24    43    1
    43    24    44    1
    44    25    26    1
    45    25    45    1
    46    25    46    1
    47    26    27    1
    48    26    47    1
    49    26    48    1
    50    27    22    1
    51    27    49    1
    52    27    50    1
    53    28    11   ar
@<TRIPOS>MOLECULE
*****
 50 53 0 0 0
SMALL
GASTEIGER

@<TRIPOS>ATOM
      1 O           1.5102   -1.0571    2.8767 O.2     1  UNL11      -0.2751
      2 C           2.3408   -0.4628    2.1500 C.2     1  UNL11       0.2226
      3 C           3.5349    0.2187    2.7804 C.3     1  UNL11       0.0495
      4 C           4.7919   -0.3506    2.2746 C.ar    1  UNL11      -0.0386
      5 C           4.8949   -1.6606    1.8624 C.ar    1  UNL11      -0.0581
      6 C           6.0691   -2.2004    1.3838 C.ar    1  UNL11      -0.0615
      7 C           7.2119   -1.4346    1.2966 C.ar    1  UNL11      -0.0617
      8 C           7.1280   -0.1201    1.7048 C.ar    1  UNL11      -0.0615
      9 C           5.9524    0.4179    2.1836 C.ar    1  UNL11      -0.0581
     10 N           2.1622   -0.4319    0.7630 N.am    1  UNL11      -0.2701
     11 C           1.1107   -1.0132    0.0199 C.ar    1  UNL11       0.1252
     12 C           1.0978   -1.3103   -1.3106 C.ar    1  UNL11      -0.0215
     13 C           0.0171   -1.8765   -1.9634 C.ar    1  UNL11      -0.0568
     14 C          -1.1384   -2.1684   -1.2329 C.ar    1  UNL11      -0.0399
     15 C          -1.1106   -1.8653    0.0970 C.ar    1  UNL11       0.0494
     16 C          -2.2999   -2.1256    0.9422 C.3     1  UNL11       0.0380
     17 C          -2.6135   -3.5731    0.9281 C.2     1  UNL11       0.1165
     18 N          -1.6088   -4.4887    0.7592 N.2     1  UNL11      -0.0076
     19 N          -1.8679   -5.7627    0.7910 N.am    1  UNL11      -0.0358
     20 C          -3.0944   -6.2759    0.9848 C.2     1  UNL11       0.4340
     21 O          -3.3211   -7.5136    1.0119 O.2     1  UNL11      -0.2120
     22 C          -4.1516   -5.3906    1.1614 C.2     1  UNL11       0.0740
     23 C          -3.8703   -4.0447    1.1249 C.2     1  UNL11      -0.0072
     24 C          -5.0586   -3.1354    1.2791 C.3     1  UNL11      -0.0252
     25 C          -6.1838   -3.6474    0.4112 C.3     1  UNL11      -0.0487
     26 C          -6.4813   -5.0945    0.5516 C.3     1  UNL11      -0.0484
     27 C          -5.5221   -5.8459    1.4019 C.3     1  UNL11      -0.0176
     28 N          -0.0378   -1.3157    0.6896 N.ar    1  UNL11      -0.2364
     29 H           3.4550    1.2902    2.5782 H       1  UNL11       0.0407
     30 H           3.4052    0.0687    3.8766 H       1  UNL11       0.0407
     31 H           3.9948   -2.2705    1.9273 H       1  UNL11       0.0620
     32 H           6.1535   -3.2418    1.0564 H       1  UNL11       0.0618
     33 H           8.1443   -1.8611    0.9164 H       1  UNL11       0.0618
     34 H           8.0149    0.4925    1.6407 H       1  UNL11       0.0618
     35 H           5.8551    1.4500    2.5132 H       1  UNL11       0.0620
     36 H           2.9343    0.1018    0.2390 H       1  UNL11       0.1562
     37 H           1.9704   -1.0990   -1.9019 H       1  UNL11       0.0652
     38 H           0.0588   -2.0933   -3.0230 H       1  UNL11       0.0619
     39 H          -1.9705   -2.6191   -1.7655 H       1  UNL11       0.0636
     40 H          -3.1686   -1.6087    0.4249 H       1  UNL11       0.0394
     41 H          -2.2485   -1.6726    1.9410 H       1  UNL11       0.0394
     42 H          -1.1003   -6.4818    0.6613 H       1  UNL11       0.4828
     43 H          -4.7691   -2.1595    0.8174 H       1  UNL11       0.0314
     44 H          -5.3341   -3.0718    2.3286 H       1  UNL11       0.0314
     45 H          -7.0870   -3.0365    0.6958 H       1  UNL11       0.0268
     46 H          -5.9422   -3.3699   -0.6497 H       1  UNL11       0.0268
     47 H          -7.5062   -5.2404    0.9922 H       1  UNL11       0.0269
     48 H          -6.4707   -5.5625   -0.4740 H       1  UNL11       0.0269
     49 H          -5.7883   -5.7009    2.4695 H       1  UNL11       0.0316
     50 H          -5.6156   -6.9331    1.1401 H       1  UNL11       0.0316
@<TRIPOS>BOND
     1     1     2    2
     2     2     3    1
     3     2    10   am
     4     3     4    1
     5     3    29    1
     6     3    30    1
     7     4     5   ar
     8     5     6   ar
     9     5    31    1
    10     6     7   ar
    11     6    32    1
    12     7     8   ar
    13     7    33    1
    14     8     9   ar
    15     8    34    1
    16     9     4   ar
    17     9    35    1
    18    10    11    1
    19    10    36    1
    20    11    12   ar
    21    12    13   ar
    22    12    37    1
    23    13    14   ar
    24    13    38    1
    25    14    15   ar
    26    14    39    1
    27    15    16    1
    28    15    28   ar
    29    16    17    1
    30    16    40    1
    31    16    41    1
    32    17    18    2
    33    18    19    1
    34    19    20   am
    35    19    42    1
    36    20    21    2
    37    20    22    1
    38    22    23    2
    39    23    24    1
    40    23    17    1
    41    24    25    1
    42    24    43    1
    43    24    44    1
    44    25    26    1
    45    25    45    1
    46    25    46    1
    47    26    27    1
    48    26    47    1
    49    26    48    1
    50    27    22    1
    51    27    49    1
    52    27    50    1
    53    28    11   ar
@<TRIPOS>MOLECULE
*****
 50 53 0 0 0
SMALL
GASTEIGER

@<TRIPOS>ATOM
      1 O           4.2790   -0.3093    1.6507 O.2     1  UNL11      -0.2751
      2 C           3.4530   -0.9381    0.9480 C.2     1  UNL11       0.2226
      3 C           3.8595   -2.2445    0.3033 C.3     1  UNL11       0.0495
      4 C           3.0049   -3.3468    0.7667 C.ar    1  UNL11      -0.0386
      5 C           1.8426   -3.7013    0.1186 C.ar    1  UNL11      -0.0581
      6 C           1.0382   -4.7358    0.5452 C.ar    1  UNL11      -0.0615
      7 C           1.3716   -5.4728    1.6612 C.ar    1  UNL11      -0.0617
      8 C           2.5323   -5.1324    2.3234 C.ar    1  UNL11      -0.0615
      9 C           3.3355   -4.0969    1.8951 C.ar    1  UNL11      -0.0581
     10 N           2.1622   -0.4319    0.7630 N.am    1  UNL11      -0.2701
     11 C           1.1107   -1.0132    0.0199 C.ar    1  UNL11       0.1252
     12 C           1.0978   -1.3103   -1.3106 C.ar    1  UNL11      -0.0215
     13 C           0.0171   -1.8765   -1.9634 C.ar    1  UNL11      -0.0568
     14 C          -1.1384   -2.1684   -1.2329 C.ar    1  UNL11      -0.0399
     15 C          -1.1106   -1.8653    0.0970 C.ar    1  UNL11       0.0494
     16 C          -2.2999   -2.1256    0.9422 C.3     1  UNL11       0.0380
     17 C          -1.9437   -3.0710    2.0253 C.2     1  UNL11       0.1165
     18 N          -2.8961   -3.4696    2.9255 N.2     1  UNL11      -0.0076
     19 N          -2.6043   -4.3341    3.8522 N.am    1  UNL11      -0.0358
     20 C          -1.3918   -4.8925    4.0044 C.2     1  UNL11       0.4340
     21 O          -1.1328   -5.7280    4.9094 O.2     1  UNL11      -0.2120
     22 C          -0.3872   -4.5229    3.1175 C.2     1  UNL11       0.0740
     23 C          -0.7027   -3.6068    2.1412 C.2     1  UNL11      -0.0072
     24 C           0.4339   -3.2129    1.2380 C.3     1  UNL11      -0.0252
     25 C           1.6624   -2.9570    2.0788 C.3     1  UNL11      -0.0487
     26 C           1.9856   -4.0185    3.0642 C.3     1  UNL11      -0.0484
     27 C           0.9616   -5.0886    3.1823 C.3     1  UNL11      -0.0176
     28 N          -0.0378   -1.3157    0.6896 N.ar    1  UNL11      -0.2364
     29 H           3.8127   -2.1123   -0.7809 H       1  UNL11       0.0407
     30 H           4.9288   -2.3822    0.5836 H       1  UNL11       0.0407
     31 H           1.5745   -3.1238   -0.7651 H       1  UNL11       0.0620
     32 H           0.1133   -5.0189    0.0320 H       1  UNL11       0.0618
     33 H           0.7348   -6.2946    2.0006 H       1  UNL11       0.0618
     34 H           2.8072   -5.7021    3.1985 H       1  UNL11       0.0618
     35 H           4.2558   -3.8046    2.3962 H       1  UNL11       0.0620
     36 H           1.9912    0.5081    1.2556 H       1  UNL11       0.1562
     37 H           1.9704   -1.0990   -1.9019 H       1  UNL11       0.0652
     38 H           0.0588   -2.0933   -3.0230 H       1  UNL11       0.0619
     39 H          -1.9705   -2.6191   -1.7655 H       1  UNL11       0.0636
     40 H          -3.0411   -2.6713    0.2771 H       1  UNL11       0.0394
     41 H          -2.8228   -1.2185    1.2727 H       1  UNL11       0.0394
     42 H          -3.3313   -4.6508    4.5553 H       1  UNL11       0.4828
     43 H           0.1680   -2.2124    0.8168 H       1  UNL11       0.0314
     44 H           0.5905   -3.9875    0.4916 H       1  UNL11       0.0314
     45 H           2.5103   -2.8368    1.3463 H       1  UNL11       0.0268
     46 H           1.5306   -1.9555    2.5692 H       1  UNL11       0.0268
     47 H           2.9597   -4.5141    2.7973 H       1  UNL11       0.0269
     48 H           2.1015   -3.5408    4.0787 H       1  UNL11       0.0269
     49 H           1.1044   -5.8237    2.3632 H       1  UNL11       0.0316
     50 H           1.1155   -5.5986    4.1700 H       1  UNL11       0.0316
@<TRIPOS>BOND
     1     1     2    2
     2     2     3    1
     3     2    10   am
     4     3     4    1
     5     3    29    1
     6     3    30    1
     7     4     5   ar
     8     5     6   ar
     9     5    31    1
    10     6     7   ar
    11     6    32    1
    12     7     8   ar
    13     7    33    1
    14     8     9   ar
    15     8    34    1
    16     9     4   ar
    17     9    35    1
    18    10    11    1
    19    10    36    1
    20    11    12   ar
    21    12    13   ar
    22    12    37    1
    23    13    14   ar
    24    13    38    1
    25    14    15   ar
    26    14    39    1
    27    15    16    1
    28    15    28   ar
    29    16    17    1
    30    16    40    1
    31    16    41    1
    32    17    18    2
    33    18    19    1
    34    19    20   am
    35    19    42    1
    36    20    21    2
    37    20    22    1
    38    22    23    2
    39    23    24    1
    40    23    17    1
    41    24    25    1
    42    24    43    1
    43    24    44    1
    44    25    26    1
    45    25    45    1
    46    25    46    1
    47    26    27    1
    48    26    47    1
    49    26    48    1
    50    27    22    1
    51    27    49    1
    52    27    50    1
    53    28    11   ar
@<TRIPOS>MOLECULE
*****
 50 53 0 0 0
SMALL
GASTEIGER

@<TRIPOS>ATOM
      1 O           4.0570   -0.4365    2.0643 O.2     1  UNL11      -0.2751
      2 C           3.1975   -1.0938    1.4314 C.2     1  UNL11       0.2226
      3 C           3.2861   -2.6032    1.3953 C.3     1  UNL11       0.0495
      4 C           2.0798   -3.2139    1.9716 C.ar    1  UNL11      -0.0386
      5 C           1.6001   -4.4353    1.5539 C.ar    1  UNL11      -0.0581
      6 C           0.4718   -5.0155    2.0920 C.ar    1  UNL11      -0.0615
      7 C          -0.2368   -4.3834    3.0909 C.ar    1  UNL11      -0.0617
      8 C           0.2285   -3.1591    3.5224 C.ar    1  UNL11      -0.0615
      9 C           1.3574   -2.5802    2.9826 C.ar    1  UNL11      -0.0581
     10 N           2.1622   -0.4319    0.7630 N.am    1  UNL11      -0.2701
     11 C           1.1107   -1.0132    0.0199 C.ar    1  UNL11       0.1252
     12 C           1.0978   -1.3103   -1.3106 C.ar    1  UNL11      -0.0215
     13 C           0.0171   -1.8765   -1.9634 C.ar    1  UNL11      -0.0568
     14 C          -1.1384   -2.1684   -1.2329 C.ar    1  UNL11      -0.0399
     15 C          -1.1106   -1.8653    0.0970 C.ar    1  UNL11       0.0494
     16 C          -2.2999   -2.1256    0.9422 C.3     1  UNL11       0.0380
     17 C          -3.4594   -1.3684    0.4169 C.2     1  UNL11       0.1165
     18 N          -3.5468   -1.0940   -0.9223 N.2     1  UNL11      -0.0076
     19 N          -4.5830   -0.4695   -1.3994 N.am    1  UNL11      -0.0358
     20 C          -5.6200   -0.0541   -0.6527 C.2     1  UNL11       0.4340
     21 O          -6.6130    0.5486   -1.1372 O.2     1  UNL11      -0.2120
     22 C          -5.5825   -0.3063    0.7138 C.2     1  UNL11       0.0740
     23 C          -4.4827   -0.9657    1.2115 C.2     1  UNL11      -0.0072
     24 C          -4.4774   -1.1729    2.7014 C.3     1  UNL11      -0.0252
     25 C          -4.8990    0.1108    3.3765 C.3     1  UNL11      -0.0487
     26 C          -6.1332    0.7328    2.8361 C.3     1  UNL11      -0.0484
     27 C          -6.6706    0.0841    1.6121 C.3     1  UNL11      -0.0176
     28 N          -0.0378   -1.3157    0.6896 N.ar    1  UNL11      -0.2364
     29 H           3.4469   -2.9051    0.3569 H       1  UNL11       0.0407
     30 H           4.2089   -2.8502    1.9683 H       1  UNL11       0.0407
     31 H           2.1567   -4.9407    0.7659 H       1  UNL11       0.0620
     32 H           0.0881   -5.9861    1.7608 H       1  UNL11       0.0618
     33 H          -1.1320   -4.8428    3.5196 H       1  UNL11       0.0618
     34 H          -0.3155   -2.6527    4.3057 H       1  UNL11       0.0618
     35 H           1.7484   -1.6164    3.3013 H       1  UNL11       0.0620
     36 H           2.2084    0.6388    0.8460 H       1  UNL11       0.1562
     37 H           1.9704   -1.0990   -1.9019 H       1  UNL11       0.0652
     38 H           0.0588   -2.0933   -3.0230 H       1  UNL11       0.0619
     39 H          -1.9705   -2.6191   -1.7655 H       1  UNL11       0.0636
     40 H          -2.0636   -1.6775    1.9585 H       1  UNL11       0.0394
     41 H          -2.4901   -3.1898    1.1337 H       1  UNL11       0.0394
     42 H          -4.6633   -0.2505   -2.4332 H       1  UNL11       0.4828
     43 H          -3.4076   -1.3073    2.9958 H       1  UNL11       0.0314
     44 H          -5.1217   -2.0110    2.9543 H       1  UNL11       0.0314
     45 H          -5.0410   -0.1518    4.4632 H       1  UNL11       0.0268
     46 H          -4.0238    0.8133    3.3380 H       1  UNL11       0.0268
     47 H          -6.9490    0.7160    3.6106 H       1  UNL11       0.0269
     48 H          -5.9103    1.8089    2.5847 H       1  UNL11       0.0269
     49 H          -7.2628   -0.8089    1.9012 H       1  UNL11       0.0316
     50 H          -7.3411    0.8251    1.1014 H       1  UNL11       0.0316
@<TRIPOS>BOND
     1     1     2    2
     2     2     3    1
     3     2    10   am
     4     3     4    1
     5     3    29    1
     6     3    30    1
     7     4     5   ar
     8     5     6   ar
     9     5    31    1
    10     6     7   ar
    11     6    32    1
    12     7     8   ar
    13     7    33    1
    14     8     9   ar
    15     8    34    1
    16     9     4   ar
    17     9    35    1
    18    10    11    1
    19    10    36    1
    20    11    12   ar
    21    12    13   ar
    22    12    37    1
    23    13    14   ar
    24    13    38    1
    25    14    15   ar
    26    14    39    1
    27    15    16    1
    28    15    28   ar
    29    16    17    1
    30    16    40    1
    31    16    41    1
    32    17    18    2
    33    18    19    1
    34    19    20   am
    35    19    42    1
    36    20    21    2
    37    20    22    1
    38    22    23    2
    39    23    24    1
    40    23    17    1
    41    24    25    1
    42    24    43    1
    43    24    44    1
    44    25    26    1
    45    25    45    1
    46    25    46    1
    47    26    27    1
    48    26    47    1
    49    26    48    1
    50    27    22    1
    51    27    49    1
    52    27    50    1
    53    28    11   ar
@<TRIPOS>MOLECULE
*****
 50 53 0 0 0
SMALL
GASTEIGER

@<TRIPOS>ATOM
      1 O           1.6304    1.7867    0.4821 O.2     1  UNL11      -0.2751
      2 C           2.3997    0.9298    0.9773 C.2     1  UNL11       0.2226
      3 C           3.5833    1.3762    1.8065 C.3     1  UNL11       0.0495
      4 C           4.3612    0.2208    2.2757 C.ar    1  UNL11      -0.0386
      5 C           4.9601   -0.6660    1.4089 C.ar    1  UNL11      -0.0581
      6 C           5.6938   -1.7494    1.8415 C.ar    1  UNL11      -0.0615
      7 C           5.8610   -1.9943    3.1876 C.ar    1  UNL11      -0.0617
      8 C           5.2684   -1.1168    4.0710 C.ar    1  UNL11      -0.0615
      9 C           4.5346   -0.0336    3.6361 C.ar    1  UNL11      -0.0581
     10 N           2.1622   -0.4319    0.7630 N.am    1  UNL11      -0.2701
     11 C           1.1107   -1.0132    0.0199 C.ar    1  UNL11       0.1252
     12 C           1.0978   -1.3103   -1.3106 C.ar    1  UNL11      -0.0215
     13 C           0.0171   -1.8765   -1.9634 C.ar    1  UNL11      -0.0568
     14 C          -1.1384   -2.1684   -1.2329 C.ar    1  UNL11      -0.0399
     15 C          -1.1106   -1.8653    0.0970 C.ar    1  UNL11       0.0494
     16 C          -2.2999   -2.1256    0.9422 C.3     1  UNL11       0.0380
     17 C          -3.1752   -0.9309    0.9515 C.2     1  UNL11       0.1165
     18 N          -4.1651   -0.8012    0.0136 N.2     1  UNL11      -0.0076
     19 N          -4.9676    0.2217    0.0414 N.am    1  UNL11      -0.0358
     20 C          -4.9018    1.2042    0.9555 C.2     1  UNL11       0.4340
     21 O          -5.6903    2.1852    0.9626 O.2     1  UNL11      -0.2120
     22 C          -3.9147    1.1228    1.9310 C.2     1  UNL11       0.0740
     23 C          -3.0686    0.0389    1.8942 C.2     1  UNL11      -0.0072
     24 C          -1.9947    0.0260    2.9474 C.3     1  UNL11      -0.0252
     25 C          -1.3790    1.4024    3.0369 C.3     1  UNL11      -0.0487
     26 C          -2.3474    2.5217    3.1449 C.3     1  UNL11      -0.0484
     27 C          -3.7713    2.1282    2.9855 C.3     1  UNL11      -0.0176
     28 N          -0.0378   -1.3157    0.6896 N.ar    1  UNL11      -0.2364
     29 H           4.1821    2.0580    1.1966 H       1  UNL11       0.0407
     30 H           3.1420    1.9656    2.6423 H       1  UNL11       0.0407
     31 H           4.8331   -0.4770    0.3438 H       1  UNL11       0.0620
     32 H           6.1702   -2.4562    1.1542 H       1  UNL11       0.0618
     33 H           6.4436   -2.8531    3.5326 H       1  UNL11       0.0618
     34 H           5.3922   -1.2949    5.1287 H       1  UNL11       0.0618
     35 H           4.0553    0.6752    4.3079 H       1  UNL11       0.0620
     36 H           2.8815   -1.0762    1.2352 H       1  UNL11       0.1562
     37 H           1.9704   -1.0990   -1.9019 H       1  UNL11       0.0652
     38 H           0.0588   -2.0933   -3.0230 H       1  UNL11       0.0619
     39 H          -1.9705   -2.6191   -1.7655 H       1  UNL11       0.0636
     40 H          -1.9094   -2.2399    2.0024 H       1  UNL11       0.0394
     41 H          -2.8103   -3.0719    0.7195 H       1  UNL11       0.0394
     42 H          -5.7374    0.3346   -0.6783 H       1  UNL11       0.4828
     43 H          -1.1753   -0.6234    2.5524 H       1  UNL11       0.0314
     44 H          -2.4161   -0.3071    3.8924 H       1  UNL11       0.0314
     45 H          -0.7128    1.3770    3.9455 H       1  UNL11       0.0268
     46 H          -0.6960    1.5224    2.1537 H       1  UNL11       0.0268
     47 H          -2.2487    3.0267    4.1454 H       1  UNL11       0.0269
     48 H          -2.1087    3.2790    2.3447 H       1  UNL11       0.0269
     49 H          -4.1495    1.7253    3.9478 H       1  UNL11       0.0316
     50 H          -4.3504    3.0508    2.7158 H       1  UNL11       0.0316
@<TRIPOS>BOND
     1     1     2    2
     2     2     3    1
     3     2    10   am
     4     3     4    1
     5     3    29    1
     6     3    30    1
     7     4     5   ar
     8     5     6   ar
     9     5    31    1
    10     6     7   ar
    11     6    32    1
    12     7     8   ar
    13     7    33    1
    14     8     9   ar
    15     8    34    1
    16     9     4   ar
    17     9    35    1
    18    10    11    1
    19    10    36    1
    20    11    12   ar
    21    12    13   ar
    22    12    37    1
    23    13    14   ar
    24    13    38    1
    25    14    15   ar
    26    14    39    1
    27    15    16    1
    28    15    28   ar
    29    16    17    1
    30    16    40    1
    31    16    41    1
    32    17    18    2
    33    18    19    1
    34    19    20   am
    35    19    42    1
    36    20    21    2
    37    20    22    1
    38    22    23    2
    39    23    24    1
    40    23    17    1
    41    24    25    1
    42    24    43    1
    43    24    44    1
    44    25    26    1
    45    25    45    1
    46    25    46    1
    47    26    27    1
    48    26    47    1
    49    26    48    1
    50    27    22    1
    51    27    49    1
    52    27    50    1
    53    28    11   ar
@<TRIPOS>MOLECULE
*****
 50 53 0 0 0
SMALL
GASTEIGER

@<TRIPOS>ATOM
      1 O           3.3247    0.1151    2.6691 O.2     1  UNL11      -0.2751
      2 C           2.3408   -0.4628    2.1500 C.2     1  UNL11       0.2226
      3 C           1.3501   -1.1915    3.0304 C.3     1  UNL11       0.0495
      4 C           1.2826   -2.6165    2.6768 C.ar    1  UNL11      -0.0386
      5 C           2.3766   -3.4491    2.7581 C.ar    1  UNL11      -0.0581
      6 C           2.3200   -4.7867    2.4316 C.ar    1  UNL11      -0.0615
      7 C           1.1412   -5.3572    2.0014 C.ar    1  UNL11      -0.0617
      8 C           0.0348   -4.5389    1.9137 C.ar    1  UNL11      -0.0615
      9 C           0.0936   -3.2008    2.2406 C.ar    1  UNL11      -0.0581
     10 N           2.1622   -0.4319    0.7630 N.am    1  UNL11      -0.2701
     11 C           1.1107   -1.0132    0.0199 C.ar    1  UNL11       0.1252
     12 C           1.0978   -1.3103   -1.3106 C.ar    1  UNL11      -0.0215
     13 C           0.0171   -1.8765   -1.9634 C.ar    1  UNL11      -0.0568
     14 C          -1.1384   -2.1684   -1.2329 C.ar    1  UNL11      -0.0399
     15 C          -1.1106   -1.8653    0.0970 C.ar    1  UNL11       0.0494
     16 C          -2.2999   -2.1256    0.9422 C.3     1  UNL11       0.0380
     17 C          -1.9437   -3.0710    2.0253 C.2     1  UNL11       0.1165
     18 N          -2.0830   -4.4195    1.8290 N.2     1  UNL11      -0.0076
     19 N          -1.7302   -5.2591    2.7573 N.am    1  UNL11      -0.0358
     20 C          -1.2174   -4.8953    3.9447 C.2     1  UNL11       0.4340
     21 O          -0.8826   -5.7266    4.8283 O.2     1  UNL11      -0.2120
     22 C          -1.0549   -3.5379    4.1969 C.2     1  UNL11       0.0740
     23 C          -1.4318   -2.6557    3.2111 C.2     1  UNL11      -0.0072
     24 C          -1.2731   -1.2002    3.5562 C.3     1  UNL11      -0.0252
     25 C          -1.7978   -0.9675    4.9534 C.3     1  UNL11      -0.0487
     26 C          -1.2962   -1.9123    5.9819 C.3     1  UNL11      -0.0484
     27 C          -0.4846   -3.0369    5.4487 C.3     1  UNL11      -0.0176
     28 N          -0.0378   -1.3157    0.6896 N.ar    1  UNL11      -0.2364
     29 H           1.6488   -1.0370    4.0707 H       1  UNL11       0.0407
     30 H           0.3825   -0.6628    2.8720 H       1  UNL11       0.0407
     31 H           3.3106   -3.0046    3.0990 H       1  UNL11       0.0620
     32 H           3.1886   -5.4503    2.4946 H       1  UNL11       0.0618
     33 H           1.0944   -6.4187    1.7427 H       1  UNL11       0.0618
     34 H          -0.8961   -4.9723    1.5797 H       1  UNL11       0.0618
     35 H          -0.7611   -2.5304    2.1812 H       1  UNL11       0.0620
     36 H           2.9343    0.1018    0.2390 H       1  UNL11       0.1562
     37 H           1.9704   -1.0990   -1.9019 H       1  UNL11       0.0652
     38 H           0.0588   -2.0933   -3.0230 H       1  UNL11       0.0619
     39 H          -1.9705   -2.6191   -1.7655 H       1  UNL11       0.0636
     40 H          -3.0411   -2.6713    0.2771 H       1  UNL11       0.0394
     41 H          -2.8228   -1.2185    1.2727 H       1  UNL11       0.0394
     42 H          -1.8330   -6.3048    2.6188 H       1  UNL11       0.4828
     43 H          -1.9793   -0.6417    2.8939 H       1  UNL11       0.0314
     44 H          -0.2308   -0.9120    3.4462 H       1  UNL11       0.0314
     45 H          -1.4989    0.0868    5.2167 H       1  UNL11       0.0268
     46 H          -2.9191   -0.9676    4.8949 H       1  UNL11       0.0268
     47 H          -0.6617   -1.3677    6.7345 H       1  UNL11       0.0269
     48 H          -2.1811   -2.3538    6.5231 H       1  UNL11       0.0269
     49 H           0.5557   -2.6893    5.2795 H       1  UNL11       0.0316
     50 H          -0.4832   -3.8509    6.2212 H       1  UNL11       0.0316
@<TRIPOS>BOND
     1     1     2    2
     2     2     3    1
     3     2    10   am
     4     3     4    1
     5     3    29    1
     6     3    30    1
     7     4     5   ar
     8     5     6   ar
     9     5    31    1
    10     6     7   ar
    11     6    32    1
    12     7     8   ar
    13     7    33    1
    14     8     9   ar
    15     8    34    1
    16     9     4   ar
    17     9    35    1
    18    10    11    1
    19    10    36    1
    20    11    12   ar
    21    12    13   ar
    22    12    37    1
    23    13    14   ar
    24    13    38    1
    25    14    15   ar
    26    14    39    1
    27    15    16    1
    28    15    28   ar
    29    16    17    1
    30    16    40    1
    31    16    41    1
    32    17    18    2
    33    18    19    1
    34    19    20   am
    35    19    42    1
    36    20    21    2
    37    20    22    1
    38    22    23    2
    39    23    24    1
    40    23    17    1
    41    24    25    1
    42    24    43    1
    43    24    44    1
    44    25    26    1
    45    25    45    1
    46    25    46    1
    47    26    27    1
    48    26    47    1
    49    26    48    1
    50    27    22    1
    51    27    49    1
    52    27    50    1
    53    28    11   ar
@<TRIPOS>MOLECULE
*****
 50 53 0 0 0
SMALL
GASTEIGER

@<TRIPOS>ATOM
      1 O           1.0843    1.4540    1.5150 O.2     1  UNL11      -0.2751
      2 C           2.1323    0.7669    1.4832 C.2     1  UNL11       0.2226
      3 C           3.3612    1.2406    2.2267 C.3     1  UNL11       0.0495
      4 C           3.3967    2.7080    2.3013 C.ar    1  UNL11      -0.0386
      5 C           2.8370    3.5094    1.3312 C.ar    1  UNL11      -0.0581
      6 C           2.8633    4.8857    1.3961 C.ar    1  UNL11      -0.0615
      7 C           3.4636    5.5292    2.4570 C.ar    1  UNL11      -0.0617
      8 C           4.0296    4.7431    3.4384 C.ar    1  UNL11      -0.0615
      9 C           4.0024    3.3663    3.3715 C.ar    1  UNL11      -0.0581
     10 N           2.1622   -0.4319    0.7630 N.am    1  UNL11      -0.2701
     11 C           1.1107   -1.0132    0.0199 C.ar    1  UNL11       0.1252
     12 C           1.0978   -1.3103   -1.3106 C.ar    1  UNL11      -0.0215
     13 C           0.0171   -1.8765   -1.9634 C.ar    1  UNL11      -0.0568
     14 C          -1.1384   -2.1684   -1.2329 C.ar    1  UNL11      -0.0399
     15 C          -1.1106   -1.8653    0.0970 C.ar    1  UNL11       0.0494
     16 C          -2.2999   -2.1256    0.9422 C.3     1  UNL11       0.0380
     17 C          -3.1752   -0.9309    0.9515 C.2     1  UNL11       0.1165
     18 N          -3.0029    0.0356    1.9068 N.2     1  UNL11      -0.0076
     19 N          -3.7363    1.1095    1.8958 N.am    1  UNL11      -0.0358
     20 C          -4.6906    1.3587    0.9834 C.2     1  UNL11       0.4340
     21 O          -5.3883    2.4062    0.9928 O.2     1  UNL11      -0.2120
     22 C          -4.9081    0.4101   -0.0092 C.2     1  UNL11       0.0740
     23 C          -4.1297   -0.7239    0.0098 C.2     1  UNL11      -0.0072
     24 C          -4.4384   -1.7332   -1.0619 C.3     1  UNL11      -0.0252
     25 C          -5.9361   -1.9038   -1.1582 C.3     1  UNL11      -0.0487
     26 C          -6.7112   -0.6414   -1.2462 C.3     1  UNL11      -0.0484
     27 C          -5.9073    0.5947   -1.0632 C.3     1  UNL11      -0.0176
     28 N          -0.0378   -1.3157    0.6896 N.ar    1  UNL11      -0.2364
     29 H           3.3543    0.7761    3.2164 H       1  UNL11       0.0407
     30 H           4.2210    0.8180    1.6584 H       1  UNL11       0.0407
     31 H           2.3595    3.0069    0.4911 H       1  UNL11       0.0620
     32 H           2.4197    5.5248    0.6257 H       1  UNL11       0.0618
     33 H           3.4847    6.6213    2.5104 H       1  UNL11       0.0618
     34 H           4.5021    5.2332    4.2765 H       1  UNL11       0.0618
     35 H           4.4402    2.7198    4.1290 H       1  UNL11       0.0620
     36 H           3.1088   -0.9394    0.8065 H       1  UNL11       0.1562
     37 H           1.9704   -1.0990   -1.9019 H       1  UNL11       0.0652
     38 H           0.0588   -2.0933   -3.0230 H       1  UNL11       0.0619
     39 H          -1.9705   -2.6191   -1.7655 H       1  UNL11       0.0636
     40 H          -1.9094   -2.2399    2.0024 H       1  UNL11       0.0394
     41 H          -2.8103   -3.0719    0.7195 H       1  UNL11       0.0394
     42 H          -3.6137    1.8648    2.6290 H       1  UNL11       0.4828
     43 H          -4.0671   -2.7170   -0.6830 H       1  UNL11       0.0314
     44 H          -3.9913   -1.4155   -2.0004 H       1  UNL11       0.0314
     45 H          -6.1104   -2.5307   -2.0783 H       1  UNL11       0.0268
     46 H          -6.2586   -2.5341   -0.2866 H       1  UNL11       0.0268
     47 H          -7.2200   -0.5658   -2.2468 H       1  UNL11       0.0269
     48 H          -7.5072   -0.6546   -0.4481 H       1  UNL11       0.0269
     49 H          -5.4066    0.8506   -2.0200 H       1  UNL11       0.0316
     50 H          -6.6131    1.4202   -0.7809 H       1  UNL11       0.0316
@<TRIPOS>BOND
     1     1     2    2
     2     2     3    1
     3     2    10   am
     4     3     4    1
     5     3    29    1
     6     3    30    1
     7     4     5   ar
     8     5     6   ar
     9     5    31    1
    10     6     7   ar
    11     6    32    1
    12     7     8   ar
    13     7    33    1
    14     8     9   ar
    15     8    34    1
    16     9     4   ar
    17     9    35    1
    18    10    11    1
    19    10    36    1
    20    11    12   ar
    21    12    13   ar
    22    12    37    1
    23    13    14   ar
    24    13    38    1
    25    14    15   ar
    26    14    39    1
    27    15    16    1
    28    15    28   ar
    29    16    17    1
    30    16    40    1
    31    16    41    1
    32    17    18    2
    33    18    19    1
    34    19    20   am
    35    19    42    1
    36    20    21    2
    37    20    22    1
    38    22    23    2
    39    23    24    1
    40    23    17    1
    41    24    25    1
    42    24    43    1
    43    24    44    1
    44    25    26    1
    45    25    45    1
    46    25    46    1
    47    26    27    1
    48    26    47    1
    49    26    48    1
    50    27    22    1
    51    27    49    1
    52    27    50    1
    53    28    11   ar
@<TRIPOS>MOLECULE
*****
 50 53 0 0 0
SMALL
GASTEIGER

@<TRIPOS>ATOM
      1 O           3.7813   -2.0276    0.4223 O.2     1  UNL11      -0.2751
      2 C           3.4530   -0.9381    0.9480 C.2     1  UNL11       0.2226
      3 C           4.4589   -0.1756    1.7814 C.3     1  UNL11       0.0495
      4 C           4.7069    1.1577    1.2149 C.ar    1  UNL11      -0.0386
      5 C           5.0444    2.2400    1.9967 C.ar    1  UNL11      -0.0581
      6 C           5.2818    3.4921    1.4722 C.ar    1  UNL11      -0.0615
      7 C           5.1890    3.7163    0.1154 C.ar    1  UNL11      -0.0617
      8 C           4.8521    2.6442   -0.6837 C.ar    1  UNL11      -0.0615
      9 C           4.6147    1.3924   -0.1570 C.ar    1  UNL11      -0.0581
     10 N           2.1622   -0.4319    0.7630 N.am    1  UNL11      -0.2701
     11 C           1.1107   -1.0132    0.0199 C.ar    1  UNL11       0.1252
     12 C           1.0978   -1.3103   -1.3106 C.ar    1  UNL11      -0.0215
     13 C           0.0171   -1.8765   -1.9634 C.ar    1  UNL11      -0.0568
     14 C          -1.1384   -2.1684   -1.2329 C.ar    1  UNL11      -0.0399
     15 C          -1.1106   -1.8653    0.0970 C.ar    1  UNL11       0.0494
     16 C          -2.2999   -2.1256    0.9422 C.3     1  UNL11       0.0380
     17 C          -2.0254   -1.6977    2.3333 C.2     1  UNL11       0.1165
     18 N          -1.1570   -0.6656    2.5724 N.2     1  UNL11      -0.0076
     19 N          -0.9444   -0.2530    3.7873 N.am    1  UNL11      -0.0358
     20 C          -1.5335   -0.7796    4.8740 C.2     1  UNL11       0.4340
     21 O          -1.3122   -0.3632    6.0408 O.2     1  UNL11      -0.2120
     22 C          -2.4241   -1.8307    4.6885 C.2     1  UNL11       0.0740
     23 C          -2.6427   -2.2629    3.4011 C.2     1  UNL11      -0.0072
     24 C          -3.5824   -3.4296    3.2656 C.3     1  UNL11      -0.0252
     25 C          -3.2342   -4.4636    4.3102 C.3     1  UNL11      -0.0487
     26 C          -3.0818   -3.9404    5.6905 C.3     1  UNL11      -0.0484
     27 C          -3.1357   -2.4598    5.8027 C.3     1  UNL11      -0.0176
     28 N          -0.0378   -1.3157    0.6896 N.ar    1  UNL11      -0.2364
     29 H           4.0776   -0.1258    2.8049 H       1  UNL11       0.0407
     30 H           5.3701   -0.8162    1.7884 H       1  UNL11       0.0407
     31 H           5.1211    2.0689    3.0696 H       1  UNL11       0.0620
     32 H           5.5495    4.3542    2.0920 H       1  UNL11       0.0618
     33 H           5.3779    4.7092   -0.3025 H       1  UNL11       0.0618
     34 H           4.7772    2.8044   -1.7489 H       1  UNL11       0.0618
     35 H           4.3470    0.5281   -0.7609 H       1  UNL11       0.0620
     36 H           1.9912    0.5081    1.2556 H       1  UNL11       0.1562
     37 H           1.9704   -1.0990   -1.9019 H       1  UNL11       0.0652
     38 H           0.0588   -2.0933   -3.0230 H       1  UNL11       0.0619
     39 H          -1.9705   -2.6191   -1.7655 H       1  UNL11       0.0636
     40 H          -2.4168   -3.2546    0.9758 H       1  UNL11       0.0394
     41 H          -3.2414   -1.7508    0.5197 H       1  UNL11       0.0394
     42 H          -0.2749    0.5440    3.9864 H       1  UNL11       0.4828
     43 H          -3.3361   -3.9197    2.2918 H       1  UNL11       0.0314
     44 H          -4.6089   -3.0811    3.3463 H       1  UNL11       0.0314
     45 H          -4.0663   -5.2228    4.2730 H       1  UNL11       0.0268
     46 H          -2.3105   -4.9970    3.9594 H       1  UNL11       0.0268
     47 H          -3.8876   -4.3570    6.3560 H       1  UNL11       0.0269
     48 H          -2.0847   -4.2792    6.0928 H       1  UNL11       0.0269
     49 H          -4.1959   -2.1317    5.8094 H       1  UNL11       0.0316
     50 H          -2.6526   -2.1750    6.7747 H       1  UNL11       0.0316
@<TRIPOS>BOND
     1     1     2    2
     2     2     3    1
     3     2    10   am
     4     3     4    1
     5     3    29    1
     6     3    30    1
     7     4     5   ar
     8     5     6   ar
     9     5    31    1
    10     6     7   ar
    11     6    32    1
    12     7     8   ar
    13     7    33    1
    14     8     9   ar
    15     8    34    1
    16     9     4   ar
    17     9    35    1
    18    10    11    1
    19    10    36    1
    20    11    12   ar
    21    12    13   ar
    22    12    37    1
    23    13    14   ar
    24    13    38    1
    25    14    15   ar
    26    14    39    1
    27    15    16    1
    28    15    28   ar
    29    16    17    1
    30    16    40    1
    31    16    41    1
    32    17    18    2
    33    18    19    1
    34    19    20   am
    35    19    42    1
    36    20    21    2
    37    20    22    1
    38    22    23    2
    39    23    24    1
    40    23    17    1
    41    24    25    1
    42    24    43    1
    43    24    44    1
    44    25    26    1
    45    25    45    1
    46    25    46    1
    47    26    27    1
    48    26    47    1
    49    26    48    1
    50    27    22    1
    51    27    49    1
    52    27    50    1
    53    28    11   ar
@<TRIPOS>MOLECULE
*****
 50 53 0 0 0
SMALL
GASTEIGER

@<TRIPOS>ATOM
      1 O           4.2790   -0.3093    1.6507 O.2     1  UNL11      -0.2751
      2 C           3.4530   -0.9381    0.9480 C.2     1  UNL11       0.2226
      3 C           3.8595   -2.2445    0.3033 C.3     1  UNL11       0.0495
      4 C           3.1366   -2.4542   -0.9591 C.ar    1  UNL11      -0.0386
      5 C           3.6254   -2.0171   -2.1701 C.ar    1  UNL11      -0.0581
      6 C           2.9550   -2.2132   -3.3581 C.ar    1  UNL11      -0.0615
      7 C           1.7426   -2.8684   -3.3824 C.ar    1  UNL11      -0.0617
      8 C           1.2370   -3.3134   -2.1791 C.ar    1  UNL11      -0.0615
      9 C           1.9092   -3.1160   -0.9917 C.ar    1  UNL11      -0.0581
     10 N           2.1622   -0.4319    0.7630 N.am    1  UNL11      -0.2701
     11 C           1.1107   -1.0132    0.0199 C.ar    1  UNL11       0.1252
     12 C           1.0978   -1.3103   -1.3106 C.ar    1  UNL11      -0.0215
     13 C           0.0171   -1.8765   -1.9634 C.ar    1  UNL11      -0.0568
     14 C          -1.1384   -2.1684   -1.2329 C.ar    1  UNL11      -0.0399
     15 C          -1.1106   -1.8653    0.0970 C.ar    1  UNL11       0.0494
     16 C          -2.2999   -2.1256    0.9422 C.3     1  UNL11       0.0380
     17 C          -1.9437   -3.0710    2.0253 C.2     1  UNL11       0.1165
     18 N          -2.8961   -3.4696    2.9255 N.2     1  UNL11      -0.0076
     19 N          -2.6043   -4.3341    3.8522 N.am    1  UNL11      -0.0358
     20 C          -1.3918   -4.8925    4.0044 C.2     1  UNL11       0.4340
     21 O          -1.1328   -5.7280    4.9094 O.2     1  UNL11      -0.2120
     22 C          -0.3872   -4.5229    3.1175 C.2     1  UNL11       0.0740
     23 C          -0.7027   -3.6068    2.1412 C.2     1  UNL11      -0.0072
     24 C           0.4339   -3.2129    1.2380 C.3     1  UNL11      -0.0252
     25 C           1.6624   -2.9570    2.0788 C.3     1  UNL11      -0.0487
     26 C           1.9856   -4.0185    3.0642 C.3     1  UNL11      -0.0484
     27 C           0.9616   -5.0886    3.1823 C.3     1  UNL11      -0.0176
     28 N          -0.0378   -1.3157    0.6896 N.ar    1  UNL11      -0.2364
     29 H           4.9433   -2.2256    0.1613 H       1  UNL11       0.0407
     30 H           3.6297   -3.0240    1.0651 H       1  UNL11       0.0407
     31 H           4.5840   -1.5002   -2.1577 H       1  UNL11       0.0620
     32 H           3.3413   -1.8659   -4.3219 H       1  UNL11       0.0618
     33 H           1.2096   -3.0255   -4.3244 H       1  UNL11       0.0618
     34 H           0.2888   -3.8299   -2.1829 H       1  UNL11       0.0618
     35 H           1.5363   -3.4546   -0.0275 H       1  UNL11       0.0620
     36 H           1.9912    0.5081    1.2556 H       1  UNL11       0.1562
     37 H           1.9704   -1.0990   -1.9019 H       1  UNL11       0.0652
     38 H           0.0588   -2.0933   -3.0230 H       1  UNL11       0.0619
     39 H          -1.9705   -2.6191   -1.7655 H       1  UNL11       0.0636
     40 H          -3.0411   -2.6713    0.2771 H       1  UNL11       0.0394
     41 H          -2.8228   -1.2185    1.2727 H       1  UNL11       0.0394
     42 H          -3.3313   -4.6508    4.5553 H       1  UNL11       0.4828
     43 H           0.1680   -2.2124    0.8168 H       1  UNL11       0.0314
     44 H           0.5905   -3.9875    0.4916 H       1  UNL11       0.0314
     45 H           2.5103   -2.8368    1.3463 H       1  UNL11       0.0268
     46 H           1.5306   -1.9555    2.5692 H       1  UNL11       0.0268
     47 H           2.9597   -4.5141    2.7973 H       1  UNL11       0.0269
     48 H           2.1015   -3.5408    4.0787 H       1  UNL11       0.0269
     49 H           1.1044   -5.8237    2.3632 H       1  UNL11       0.0316
     50 H           1.1155   -5.5986    4.1700 H       1  UNL11       0.0316
@<TRIPOS>BOND
     1     1     2    2
     2     2     3    1
     3     2    10   am
     4     3     4    1
     5     3    29    1
     6     3    30    1
     7     4     5   ar
     8     5     6   ar
     9     5    31    1
    10     6     7   ar
    11     6    32    1
    12     7     8   ar
    13     7    33    1
    14     8     9   ar
    15     8    34    1
    16     9     4   ar
    17     9    35    1
    18    10    11    1
    19    10    36    1
    20    11    12   ar
    21    12    13   ar
    22    12    37    1
    23    13    14   ar
    24    13    38    1
    25    14    15   ar
    26    14    39    1
    27    15    16    1
    28    15    28   ar
    29    16    17    1
    30    16    40    1
    31    16    41    1
    32    17    18    2
    33    18    19    1
    34    19    20   am
    35    19    42    1
    36    20    21    2
    37    20    22    1
    38    22    23    2
    39    23    24    1
    40    23    17    1
    41    24    25    1
    42    24    43    1
    43    24    44    1
    44    25    26    1
    45    25    45    1
    46    25    46    1
    47    26    27    1
    48    26    47    1
    49    26    48    1
    50    27    22    1
    51    27    49    1
    52    27    50    1
    53    28    11   ar
@<TRIPOS>MOLECULE
*****
 50 53 0 0 0
SMALL
GASTEIGER

@<TRIPOS>ATOM
      1 O           1.6304    1.7867    0.4821 O.2     1  UNL11      -0.2751
      2 C           2.3997    0.9298    0.9773 C.2     1  UNL11       0.2226
      3 C           3.5833    1.3762    1.8065 C.3     1  UNL11       0.0495
      4 C           4.3612    0.2208    2.2757 C.ar    1  UNL11      -0.0386
      5 C           4.9601   -0.6660    1.4089 C.ar    1  UNL11      -0.0581
      6 C           5.6938   -1.7494    1.8415 C.ar    1  UNL11      -0.0615
      7 C           5.8610   -1.9943    3.1876 C.ar    1  UNL11      -0.0617
      8 C           5.2684   -1.1168    4.0710 C.ar    1  UNL11      -0.0615
      9 C           4.5346   -0.0336    3.6361 C.ar    1  UNL11      -0.0581
     10 N           2.1622   -0.4319    0.7630 N.am    1  UNL11      -0.2701
     11 C           1.1107   -1.0132    0.0199 C.ar    1  UNL11       0.1252
     12 C           1.0978   -1.3103   -1.3106 C.ar    1  UNL11      -0.0215
     13 C           0.0171   -1.8765   -1.9634 C.ar    1  UNL11      -0.0568
     14 C          -1.1384   -2.1684   -1.2329 C.ar    1  UNL11      -0.0399
     15 C          -1.1106   -1.8653    0.0970 C.ar    1  UNL11       0.0494
     16 C          -2.2999   -2.1256    0.9422 C.3     1  UNL11       0.0380
     17 C          -2.2152   -3.4891    1.5145 C.2     1  UNL11       0.1165
     18 N          -1.6064   -3.6856    2.7257 N.2     1  UNL11      -0.0076
     19 N          -1.5673   -4.8718    3.2574 N.am    1  UNL11      -0.0358
     20 C          -2.0992   -5.9676    2.6904 C.2     1  UNL11       0.4340
     21 O          -2.0493   -7.1062    3.2245 O.2     1  UNL11      -0.2120
     22 C          -2.7292   -5.8250    1.4595 C.2     1  UNL11       0.0740
     23 C          -2.7651   -4.5678    0.9025 C.2     1  UNL11      -0.0072
     24 C          -3.4213   -4.4819   -0.4484 C.3     1  UNL11      -0.0252
     25 C          -2.9281   -5.6229   -1.3066 C.3     1  UNL11      -0.0487
     26 C          -2.9823   -6.9619   -0.6691 C.3     1  UNL11      -0.0484
     27 C          -3.3602   -6.9505    0.7678 C.3     1  UNL11      -0.0176
     28 N          -0.0378   -1.3157    0.6896 N.ar    1  UNL11      -0.2364
     29 H           4.1821    2.0580    1.1966 H       1  UNL11       0.0407
     30 H           3.1420    1.9656    2.6423 H       1  UNL11       0.0407
     31 H           4.8331   -0.4770    0.3438 H       1  UNL11       0.0620
     32 H           6.1702   -2.4562    1.1542 H       1  UNL11       0.0618
     33 H           6.4436   -2.8531    3.5326 H       1  UNL11       0.0618
     34 H           5.3922   -1.2949    5.1287 H       1  UNL11       0.0618
     35 H           4.0553    0.6752    4.3079 H       1  UNL11       0.0620
     36 H           2.8815   -1.0762    1.2352 H       1  UNL11       0.1562
     37 H           1.9704   -1.0990   -1.9019 H       1  UNL11       0.0652
     38 H           0.0588   -2.0933   -3.0230 H       1  UNL11       0.0619
     39 H          -1.9705   -2.6191   -1.7655 H       1  UNL11       0.0636
     40 H          -3.1885   -2.1339    0.2352 H       1  UNL11       0.0394
     41 H          -2.5169   -1.3313    1.6684 H       1  UNL11       0.0394
     42 H          -1.0992   -5.0379    4.1936 H       1  UNL11       0.4828
     43 H          -3.0124   -3.5644   -0.9383 H       1  UNL11       0.0314
     44 H          -4.5017   -4.4838   -0.3286 H       1  UNL11       0.0314
     45 H          -3.5733   -5.6070   -2.2304 H       1  UNL11       0.0268
     46 H          -1.8904   -5.3622   -1.6473 H       1  UNL11       0.0268
     47 H          -3.7214   -7.6189   -1.2054 H       1  UNL11       0.0269
     48 H          -1.9641   -7.4386   -0.7525 H       1  UNL11       0.0269
     49 H          -4.4642   -6.8787    0.8552 H       1  UNL11       0.0316
     50 H          -3.0142   -7.9186    1.2177 H       1  UNL11       0.0316
@<TRIPOS>BOND
     1     1     2    2
     2     2     3    1
     3     2    10   am
     4     3     4    1
     5     3    29    1
     6     3    30    1
     7     4     5   ar
     8     5     6   ar
     9     5    31    1
    10     6     7   ar
    11     6    32    1
    12     7     8   ar
    13     7    33    1
    14     8     9   ar
    15     8    34    1
    16     9     4   ar
    17     9    35    1
    18    10    11    1
    19    10    36    1
    20    11    12   ar
    21    12    13   ar
    22    12    37    1
    23    13    14   ar
    24    13    38    1
    25    14    15   ar
    26    14    39    1
    27    15    16    1
    28    15    28   ar
    29    16    17    1
    30    16    40    1
    31    16    41    1
    32    17    18    2
    33    18    19    1
    34    19    20   am
    35    19    42    1
    36    20    21    2
    37    20    22    1
    38    22    23    2
    39    23    24    1
    40    23    17    1
    41    24    25    1
    42    24    43    1
    43    24    44    1
    44    25    26    1
    45    25    45    1
    46    25    46    1
    47    26    27    1
    48    26    47    1
    49    26    48    1
    50    27    22    1
    51    27    49    1
    52    27    50    1
    53    28    11   ar
@<TRIPOS>MOLECULE
*****
 50 53 0 0 0
SMALL
GASTEIGER

@<TRIPOS>ATOM
      1 O           1.5102   -1.0571    2.8767 O.2     1  UNL11      -0.2751
      2 C           2.3408   -0.4628    2.1500 C.2     1  UNL11       0.2226
      3 C           3.5349    0.2187    2.7804 C.3     1  UNL11       0.0495
      4 C           4.3698    0.8661    1.7586 C.ar    1  UNL11      -0.0386
      5 C           5.4118    0.2150    1.1368 C.ar    1  UNL11      -0.0581
      6 C           6.1966    0.8144    0.1756 C.ar    1  UNL11      -0.0615
      7 C           5.9653    2.1173   -0.2102 C.ar    1  UNL11      -0.0617
      8 C           4.9258    2.7856    0.4016 C.ar    1  UNL11      -0.0615
      9 C           4.1420    2.1842    1.3632 C.ar    1  UNL11      -0.0581
     10 N           2.1622   -0.4319    0.7630 N.am    1  UNL11      -0.2701
     11 C           1.1107   -1.0132    0.0199 C.ar    1  UNL11       0.1252
     12 C           1.0978   -1.3103   -1.3106 C.ar    1  UNL11      -0.0215
     13 C           0.0171   -1.8765   -1.9634 C.ar    1  UNL11      -0.0568
     14 C          -1.1384   -2.1684   -1.2329 C.ar    1  UNL11      -0.0399
     15 C          -1.1106   -1.8653    0.0970 C.ar    1  UNL11       0.0494
     16 C          -2.2999   -2.1256    0.9422 C.3     1  UNL11       0.0380
     17 C          -2.2152   -3.4891    1.5145 C.2     1  UNL11       0.1165
     18 N          -1.6064   -3.6856    2.7257 N.2     1  UNL11      -0.0076
     19 N          -1.5673   -4.8718    3.2574 N.am    1  UNL11      -0.0358
     20 C          -2.0992   -5.9676    2.6904 C.2     1  UNL11       0.4340
     21 O          -2.0493   -7.1062    3.2245 O.2     1  UNL11      -0.2120
     22 C          -2.7292   -5.8250    1.4595 C.2     1  UNL11       0.0740
     23 C          -2.7651   -4.5678    0.9025 C.2     1  UNL11      -0.0072
     24 C          -3.4213   -4.4819   -0.4484 C.3     1  UNL11      -0.0252
     25 C          -2.9281   -5.6229   -1.3066 C.3     1  UNL11      -0.0487
     26 C          -2.9823   -6.9619   -0.6691 C.3     1  UNL11      -0.0484
     27 C          -3.3602   -6.9505    0.7678 C.3     1  UNL11      -0.0176
     28 N          -0.0378   -1.3157    0.6896 N.ar    1  UNL11      -0.2364
     29 H           3.1621    0.9304    3.5219 H       1  UNL11       0.0407
     30 H           4.0724   -0.5905    3.3255 H       1  UNL11       0.0407
     31 H           5.5986   -0.8154    1.4361 H       1  UNL11       0.0620
     32 H           7.0261    0.2989   -0.3195 H       1  UNL11       0.0618
     33 H           6.5867    2.5942   -0.9734 H       1  UNL11       0.0618
     34 H           4.7317    3.8065    0.1083 H       1  UNL11       0.0618
     35 H           3.3161    2.6851    1.8636 H       1  UNL11       0.0620
     36 H           2.9343    0.1018    0.2390 H       1  UNL11       0.1562
     37 H           1.9704   -1.0990   -1.9019 H       1  UNL11       0.0652
     38 H           0.0588   -2.0933   -3.0230 H       1  UNL11       0.0619
     39 H          -1.9705   -2.6191   -1.7655 H       1  UNL11       0.0636
     40 H          -3.1885   -2.1339    0.2352 H       1  UNL11       0.0394
     41 H          -2.5169   -1.3313    1.6684 H       1  UNL11       0.0394
     42 H          -1.0992   -5.0379    4.1936 H       1  UNL11       0.4828
     43 H          -3.0124   -3.5644   -0.9383 H       1  UNL11       0.0314
     44 H          -4.5017   -4.4838   -0.3286 H       1  UNL11       0.0314
     45 H          -3.5733   -5.6070   -2.2304 H       1  UNL11       0.0268
     46 H          -1.8904   -5.3622   -1.6473 H       1  UNL11       0.0268
     47 H          -3.7214   -7.6189   -1.2054 H       1  UNL11       0.0269
     48 H          -1.9641   -7.4386   -0.7525 H       1  UNL11       0.0269
     49 H          -4.4642   -6.8787    0.8552 H       1  UNL11       0.0316
     50 H          -3.0142   -7.9186    1.2177 H       1  UNL11       0.0316
@<TRIPOS>BOND
     1     1     2    2
     2     2     3    1
     3     2    10   am
     4     3     4    1
     5     3    29    1
     6     3    30    1
     7     4     5   ar
     8     5     6   ar
     9     5    31    1
    10     6     7   ar
    11     6    32    1
    12     7     8   ar
    13     7    33    1
    14     8     9   ar
    15     8    34    1
    16     9     4   ar
    17     9    35    1
    18    10    11    1
    19    10    36    1
    20    11    12   ar
    21    12    13   ar
    22    12    37    1
    23    13    14   ar
    24    13    38    1
    25    14    15   ar
    26    14    39    1
    27    15    16    1
    28    15    28   ar
    29    16    17    1
    30    16    40    1
    31    16    41    1
    32    17    18    2
    33    18    19    1
    34    19    20   am
    35    19    42    1
    36    20    21    2
    37    20    22    1
    38    22    23    2
    39    23    24    1
    40    23    17    1
    41    24    25    1
    42    24    43    1
    43    24    44    1
    44    25    26    1
    45    25    45    1
    46    25    46    1
    47    26    27    1
    48    26    47    1
    49    26    48    1
    50    27    22    1
    51    27    49    1
    52    27    50    1
    53    28    11   ar
@<TRIPOS>MOLECULE
*****
 50 53 0 0 0
SMALL
GASTEIGER

@<TRIPOS>ATOM
      1 O           3.3247    0.1151    2.6691 O.2     1  UNL11      -0.2751
      2 C           2.3408   -0.4628    2.1500 C.2     1  UNL11       0.2226
      3 C           1.3501   -1.1915    3.0304 C.3     1  UNL11       0.0495
      4 C           0.7519   -2.3291    2.3175 C.ar    1  UNL11      -0.0386
      5 C          -0.4042   -2.2107    1.5785 C.ar    1  UNL11      -0.0581
      6 C          -0.9689   -3.2719    0.9047 C.ar    1  UNL11      -0.0615
      7 C          -0.3872   -4.5209    0.9442 C.ar    1  UNL11      -0.0617
      8 C           0.7713   -4.6588    1.6793 C.ar    1  UNL11      -0.0615
      9 C           1.3346   -3.5958    2.3529 C.ar    1  UNL11      -0.0581
     10 N           2.1622   -0.4319    0.7630 N.am    1  UNL11      -0.2701
     11 C           1.1107   -1.0132    0.0199 C.ar    1  UNL11       0.1252
     12 C           1.0978   -1.3103   -1.3106 C.ar    1  UNL11      -0.0215
     13 C           0.0171   -1.8765   -1.9634 C.ar    1  UNL11      -0.0568
     14 C          -1.1384   -2.1684   -1.2329 C.ar    1  UNL11      -0.0399
     15 C          -1.1106   -1.8653    0.0970 C.ar    1  UNL11       0.0494
     16 C          -2.2999   -2.1256    0.9422 C.3     1  UNL11       0.0380
     17 C          -2.2152   -3.4891    1.5145 C.2     1  UNL11       0.1165
     18 N          -1.5611   -4.4787    0.8295 N.2     1  UNL11      -0.0076
     19 N          -1.4423   -5.6669    1.3444 N.am    1  UNL11      -0.0358
     20 C          -1.9299   -6.0176    2.5462 C.2     1  UNL11       0.4340
     21 O          -1.8023   -7.1748    3.0244 O.2     1  UNL11      -0.2120
     22 C          -2.6037   -5.0513    3.2843 C.2     1  UNL11       0.0740
     23 C          -2.7270   -3.7974    2.7325 C.2     1  UNL11      -0.0072
     24 C          -3.5018   -2.8059    3.5568 C.3     1  UNL11      -0.0252
     25 C          -4.7504   -3.4744    4.0821 C.3     1  UNL11      -0.0487
     26 C          -4.5365   -4.7931    4.7281 C.3     1  UNL11      -0.0484
     27 C          -3.1533   -5.3236    4.6136 C.3     1  UNL11      -0.0176
     28 N          -0.0378   -1.3157    0.6896 N.ar    1  UNL11      -0.2364
     29 H           1.8733   -1.5015    3.9389 H       1  UNL11       0.0407
     30 H           0.5991   -0.4202    3.3165 H       1  UNL11       0.0407
     31 H          -0.8677   -1.2258    1.5420 H       1  UNL11       0.0620
     32 H          -1.8884   -3.1803    0.3173 H       1  UNL11       0.0618
     33 H          -0.8336   -5.3639    0.4094 H       1  UNL11       0.0618
     34 H           1.2393   -5.6311    1.7181 H       1  UNL11       0.0618
     35 H           2.2466   -3.6733    2.9409 H       1  UNL11       0.0620
     36 H           2.9343    0.1018    0.2390 H       1  UNL11       0.1562
     37 H           1.9704   -1.0990   -1.9019 H       1  UNL11       0.0652
     38 H           0.0588   -2.0933   -3.0230 H       1  UNL11       0.0619
     39 H          -1.9705   -2.6191   -1.7655 H       1  UNL11       0.0636
     40 H          -3.1885   -2.1339    0.2352 H       1  UNL11       0.0394
     41 H          -2.5169   -1.3313    1.6684 H       1  UNL11       0.0394
     42 H          -0.9391   -6.4418    0.8251 H       1  UNL11       0.4828
     43 H          -3.8765   -2.0303    2.8446 H       1  UNL11       0.0314
     44 H          -2.8680   -2.4185    4.3503 H       1  UNL11       0.0314
     45 H          -5.1940   -2.7481    4.8209 H       1  UNL11       0.0268
     46 H          -5.4804   -3.5375    3.2312 H       1  UNL11       0.0268
     47 H          -4.7839   -4.7346    5.8240 H       1  UNL11       0.0269
     48 H          -5.2318   -5.5414    4.2511 H       1  UNL11       0.0269
     49 H          -2.5159   -4.8539    5.3912 H       1  UNL11       0.0316
     50 H          -3.1986   -6.4310    4.7894 H       1  UNL11       0.0316
@<TRIPOS>BOND
     1     1     2    2
     2     2     3    1
     3     2    10   am
     4     3     4    1
     5     3    29    1
     6     3    30    1
     7     4     5   ar
     8     5     6   ar
     9     5    31    1
    10     6     7   ar
    11     6    32    1
    12     7     8   ar
    13     7    33    1
    14     8     9   ar
    15     8    34    1
    16     9     4   ar
    17     9    35    1
    18    10    11    1
    19    10    36    1
    20    11    12   ar
    21    12    13   ar
    22    12    37    1
    23    13    14   ar
    24    13    38    1
    25    14    15   ar
    26    14    39    1
    27    15    16    1
    28    15    28   ar
    29    16    17    1
    30    16    40    1
    31    16    41    1
    32    17    18    2
    33    18    19    1
    34    19    20   am
    35    19    42    1
    36    20    21    2
    37    20    22    1
    38    22    23    2
    39    23    24    1
    40    23    17    1
    41    24    25    1
    42    24    43    1
    43    24    44    1
    44    25    26    1
    45    25    45    1
    46    25    46    1
    47    26    27    1
    48    26    47    1
    49    26    48    1
    50    27    22    1
    51    27    49    1
    52    27    50    1
    53    28    11   ar
@<TRIPOS>MOLECULE
*****
 50 53 0 0 0
SMALL
GASTEIGER

@<TRIPOS>ATOM
      1 O           3.7010    1.1906    1.2952 O.2     1  UNL11      -0.2751
      2 C           2.7621    0.8145    0.5548 C.2     1  UNL11       0.2226
      3 C           2.2832    1.7140   -0.5628 C.3     1  UNL11       0.0495
      4 C           2.4824    3.1292   -0.2196 C.ar    1  UNL11      -0.0386
      5 C           2.7251    4.0923   -1.1736 C.ar    1  UNL11      -0.0581
      6 C           2.9094    5.4214   -0.8596 C.ar    1  UNL11      -0.0615
      7 C           2.8570    5.8494    0.4496 C.ar    1  UNL11      -0.0617
      8 C           2.6148    4.8991    1.4190 C.ar    1  UNL11      -0.0615
      9 C           2.4311    3.5698    1.1028 C.ar    1  UNL11      -0.0581
     10 N           2.1622   -0.4319    0.7630 N.am    1  UNL11      -0.2701
     11 C           1.1107   -1.0132    0.0199 C.ar    1  UNL11       0.1252
     12 C           1.0978   -1.3103   -1.3106 C.ar    1  UNL11      -0.0215
     13 C           0.0171   -1.8765   -1.9634 C.ar    1  UNL11      -0.0568
     14 C          -1.1384   -2.1684   -1.2329 C.ar    1  UNL11      -0.0399
     15 C          -1.1106   -1.8653    0.0970 C.ar    1  UNL11       0.0494
     16 C          -2.2999   -2.1256    0.9422 C.3     1  UNL11       0.0380
     17 C          -3.4594   -1.3684    0.4169 C.2     1  UNL11       0.1165
     18 N          -4.5847   -2.0357    0.0111 N.2     1  UNL11      -0.0076
     19 N          -5.6244   -1.3770   -0.4088 N.am    1  UNL11      -0.0358
     20 C          -5.6871   -0.0368   -0.4794 C.2     1  UNL11       0.4340
     21 O          -6.7053    0.5792   -0.8893 O.2     1  UNL11      -0.2120
     22 C          -4.5718    0.6906   -0.0801 C.2     1  UNL11       0.0740
     23 C          -3.4752   -0.0129    0.3612 C.2     1  UNL11      -0.0072
     24 C          -2.2841    0.8244    0.7393 C.3     1  UNL11      -0.0252
     25 C          -2.0695    1.8788   -0.3208 C.3     1  UNL11      -0.0487
     26 C          -3.2801    2.6487   -0.6999 C.3     1  UNL11      -0.0484
     27 C          -4.5446    2.1542   -0.0965 C.3     1  UNL11      -0.0176
     28 N          -0.0378   -1.3157    0.6896 N.ar    1  UNL11      -0.2364
     29 H           2.8168    1.4302   -1.4739 H       1  UNL11       0.0407
     30 H           1.2094    1.4521   -0.7017 H       1  UNL11       0.0407
     31 H           2.7660    3.7606   -2.2102 H       1  UNL11       0.0620
     32 H           3.1033    6.1886   -1.6163 H       1  UNL11       0.0618
     33 H           3.0022    6.9039    0.7004 H       1  UNL11       0.0618
     34 H           2.5694    5.2199    2.4491 H       1  UNL11       0.0618
     35 H           2.2390    2.7975    1.8445 H       1  UNL11       0.0620
     36 H           2.5741   -0.9772    1.5927 H       1  UNL11       0.1562
     37 H           1.9704   -1.0990   -1.9019 H       1  UNL11       0.0652
     38 H           0.0588   -2.0933   -3.0230 H       1  UNL11       0.0619
     39 H          -1.9705   -2.6191   -1.7655 H       1  UNL11       0.0636
     40 H          -2.0636   -1.6775    1.9585 H       1  UNL11       0.0394
     41 H          -2.4901   -3.1898    1.1337 H       1  UNL11       0.0394
     42 H          -6.5013   -1.8807   -0.7261 H       1  UNL11       0.4828
     43 H          -1.3918    0.1564    0.6564 H       1  UNL11       0.0314
     44 H          -2.4373    1.2489    1.7282 H       1  UNL11       0.0314
     45 H          -1.2844    2.5713    0.0965 H       1  UNL11       0.0268
     46 H          -1.5994    1.3732   -1.2064 H       1  UNL11       0.0268
     47 H          -3.1649    3.7273   -0.4014 H       1  UNL11       0.0269
     48 H          -3.3944    2.6053   -1.8206 H       1  UNL11       0.0269
     49 H          -4.6346    2.5470    0.9375 H       1  UNL11       0.0316
     50 H          -5.3932    2.5457   -0.7177 H       1  UNL11       0.0316
@<TRIPOS>BOND
     1     1     2    2
     2     2     3    1
     3     2    10   am
     4     3     4    1
     5     3    29    1
     6     3    30    1
     7     4     5   ar
     8     5     6   ar
     9     5    31    1
    10     6     7   ar
    11     6    32    1
    12     7     8   ar
    13     7    33    1
    14     8     9   ar
    15     8    34    1
    16     9     4   ar
    17     9    35    1
    18    10    11    1
    19    10    36    1
    20    11    12   ar
    21    12    13   ar
    22    12    37    1
    23    13    14   ar
    24    13    38    1
    25    14    15   ar
    26    14    39    1
    27    15    16    1
    28    15    28   ar
    29    16    17    1
    30    16    40    1
    31    16    41    1
    32    17    18    2
    33    18    19    1
    34    19    20   am
    35    19    42    1
    36    20    21    2
    37    20    22    1
    38    22    23    2
    39    23    24    1
    40    23    17    1
    41    24    25    1
    42    24    43    1
    43    24    44    1
    44    25    26    1
    45    25    45    1
    46    25    46    1
    47    26    27    1
    48    26    47    1
    49    26    48    1
    50    27    22    1
    51    27    49    1
    52    27    50    1
    53    28    11   ar
@<TRIPOS>MOLECULE
*****
 50 53 0 0 0
SMALL
GASTEIGER

@<TRIPOS>ATOM
      1 O           3.3896    1.2954    1.6538 O.2     1  UNL11      -0.2751
      2 C           2.3997    0.9298    0.9773 C.2     1  UNL11       0.2226
      3 C           1.4660    1.9676    0.3952 C.3     1  UNL11       0.0495
      4 C           2.1838    3.2176    0.1083 C.ar    1  UNL11      -0.0386
      5 C           1.8149    4.0615   -0.9156 C.ar    1  UNL11      -0.0581
      6 C           2.4809    5.2368   -1.1883 C.ar    1  UNL11      -0.0615
      7 C           3.5661    5.6230   -0.4313 C.ar    1  UNL11      -0.0617
      8 C           3.9504    4.7905    0.5987 C.ar    1  UNL11      -0.0615
      9 C           3.2829    3.6150    0.8697 C.ar    1  UNL11      -0.0581
     10 N           2.1622   -0.4319    0.7630 N.am    1  UNL11      -0.2701
     11 C           1.1107   -1.0132    0.0199 C.ar    1  UNL11       0.1252
     12 C           1.0978   -1.3103   -1.3106 C.ar    1  UNL11      -0.0215
     13 C           0.0171   -1.8765   -1.9634 C.ar    1  UNL11      -0.0568
     14 C          -1.1384   -2.1684   -1.2329 C.ar    1  UNL11      -0.0399
     15 C          -1.1106   -1.8653    0.0970 C.ar    1  UNL11       0.0494
     16 C          -2.2999   -2.1256    0.9422 C.3     1  UNL11       0.0380
     17 C          -1.8701   -2.4283    2.3269 C.2     1  UNL11       0.1165
     18 N          -1.1690   -1.4956    3.0445 N.2     1  UNL11      -0.0076
     19 N          -0.8268   -1.7344    4.2761 N.am    1  UNL11      -0.0358
     20 C          -1.1183   -2.8712    4.9304 C.2     1  UNL11       0.4340
     21 O          -0.7765   -3.0800    6.1235 O.2     1  UNL11      -0.2120
     22 C          -1.8283   -3.8528    4.2486 C.2     1  UNL11       0.0740
     23 C          -2.1853   -3.5937    2.9457 C.2     1  UNL11      -0.0072
     24 C          -2.9141   -4.7079    2.2454 C.3     1  UNL11      -0.0252
     25 C          -2.2150   -6.0136    2.5419 C.3     1  UNL11      -0.0487
     26 C          -1.9221   -6.2618    3.9754 C.3     1  UNL11      -0.0484
     27 C          -2.2158   -5.1174    4.8763 C.3     1  UNL11      -0.0176
     28 N          -0.0378   -1.3157    0.6896 N.ar    1  UNL11      -0.2364
     29 H           1.0055    1.5402   -0.4996 H       1  UNL11       0.0407
     30 H           0.6671    2.0964    1.1607 H       1  UNL11       0.0407
     31 H           0.9570    3.7627   -1.5164 H       1  UNL11       0.0620
     32 H           2.1899    5.9088   -2.0023 H       1  UNL11       0.0618
     33 H           4.0953    6.5557   -0.6459 H       1  UNL11       0.0618
     34 H           4.7980    5.0809    1.2013 H       1  UNL11       0.0618
     35 H           3.5622    2.9380    1.6740 H       1  UNL11       0.0620
     36 H           2.8815   -1.0762    1.2352 H       1  UNL11       0.1562
     37 H           1.9704   -1.0990   -1.9019 H       1  UNL11       0.0652
     38 H           0.0588   -2.0933   -3.0230 H       1  UNL11       0.0619
     39 H          -1.9705   -2.6191   -1.7655 H       1  UNL11       0.0636
     40 H          -2.7650   -3.0801    0.5396 H       1  UNL11       0.0394
     41 H          -3.0861   -1.3639    0.8574 H       1  UNL11       0.0394
     42 H          -0.2840   -1.0219    4.8426 H       1  UNL11       0.4828
     43 H          -2.7564   -4.5468    1.1507 H       1  UNL11       0.0314
     44 H          -3.9564   -4.7108    2.5536 H       1  UNL11       0.0314
     45 H          -2.8941   -6.8181    2.1399 H       1  UNL11       0.0268
     46 H          -1.2860   -6.0473    1.9120 H       1  UNL11       0.0268
     47 H          -2.5154   -7.1425    4.3471 H       1  UNL11       0.0269
     48 H          -0.8269   -6.5080    4.0787 H       1  UNL11       0.0269
     49 H          -3.3000   -5.1069    5.1130 H       1  UNL11       0.0316
     50 H          -1.6306   -5.2703    5.8215 H       1  UNL11       0.0316
@<TRIPOS>BOND
     1     1     2    2
     2     2     3    1
     3     2    10   am
     4     3     4    1
     5     3    29    1
     6     3    30    1
     7     4     5   ar
     8     5     6   ar
     9     5    31    1
    10     6     7   ar
    11     6    32    1
    12     7     8   ar
    13     7    33    1
    14     8     9   ar
    15     8    34    1
    16     9     4   ar
    17     9    35    1
    18    10    11    1
    19    10    36    1
    20    11    12   ar
    21    12    13   ar
    22    12    37    1
    23    13    14   ar
    24    13    38    1
    25    14    15   ar
    26    14    39    1
    27    15    16    1
    28    15    28   ar
    29    16    17    1
    30    16    40    1
    31    16    41    1
    32    17    18    2
    33    18    19    1
    34    19    20   am
    35    19    42    1
    36    20    21    2
    37    20    22    1
    38    22    23    2
    39    23    24    1
    40    23    17    1
    41    24    25    1
    42    24    43    1
    43    24    44    1
    44    25    26    1
    45    25    45    1
    46    25    46    1
    47    26    27    1
    48    26    47    1
    49    26    48    1
    50    27    22    1
    51    27    49    1
    52    27    50    1
    53    28    11   ar
@<TRIPOS>MOLECULE
*****
 50 53 0 0 0
SMALL
GASTEIGER

@<TRIPOS>ATOM
      1 O           2.3704    1.5511   -0.3808 O.2     1  UNL11      -0.2751
      2 C           2.7621    0.8145    0.5548 C.2     1  UNL11       0.2226
      3 C           3.8844    1.2805    1.4553 C.3     1  UNL11       0.0495
      4 C           4.8026    2.1713    0.7317 C.ar    1  UNL11      -0.0386
      5 C           4.3905    3.3631    0.1782 C.ar    1  UNL11      -0.0581
      6 C           5.2464    4.2050   -0.4985 C.ar    1  UNL11      -0.0615
      7 C           6.5773    3.8812   -0.6518 C.ar    1  UNL11      -0.0617
      8 C           7.0085    2.6914   -0.1040 C.ar    1  UNL11      -0.0615
      9 C           6.1506    1.8504    0.5724 C.ar    1  UNL11      -0.0581
     10 N           2.1622   -0.4319    0.7630 N.am    1  UNL11      -0.2701
     11 C           1.1107   -1.0132    0.0199 C.ar    1  UNL11       0.1252
     12 C           1.0978   -1.3103   -1.3106 C.ar    1  UNL11      -0.0215
     13 C           0.0171   -1.8765   -1.9634 C.ar    1  UNL11      -0.0568
     14 C          -1.1384   -2.1684   -1.2329 C.ar    1  UNL11      -0.0399
     15 C          -1.1106   -1.8653    0.0970 C.ar    1  UNL11       0.0494
     16 C          -2.2999   -2.1256    0.9422 C.3     1  UNL11       0.0380
     17 C          -2.2152   -3.4891    1.5145 C.2     1  UNL11       0.1165
     18 N          -1.1406   -4.2871    1.2236 N.2     1  UNL11      -0.0076
     19 N          -1.0349   -5.4683    1.7574 N.am    1  UNL11      -0.0358
     20 C          -1.9333   -5.9918    2.6083 C.2     1  UNL11       0.4340
     21 O          -1.8096   -7.1381    3.1129 O.2     1  UNL11      -0.2120
     22 C          -3.0445   -5.2242    2.9377 C.2     1  UNL11       0.0740
     23 C          -3.1503   -3.9766    2.3680 C.2     1  UNL11      -0.0072
     24 C          -4.3933   -3.2094    2.7273 C.3     1  UNL11      -0.0252
     25 C          -5.5843   -4.1339    2.6341 C.3     1  UNL11      -0.0487
     26 C          -5.4295   -5.4353    3.3303 C.3     1  UNL11      -0.0484
     27 C          -4.0700   -5.6917    3.8721 C.3     1  UNL11      -0.0176
     28 N          -0.0378   -1.3157    0.6896 N.ar    1  UNL11      -0.2364
     29 H           3.4360    1.7670    2.3257 H       1  UNL11       0.0407
     30 H           4.3787    0.3455    1.8050 H       1  UNL11       0.0407
     31 H           3.3402    3.6255    0.2974 H       1  UNL11       0.0620
     32 H           4.9208    5.1525   -0.9401 H       1  UNL11       0.0618
     33 H           7.2580    4.5485   -1.1879 H       1  UNL11       0.0618
     34 H           8.0491    2.4252   -0.2148 H       1  UNL11       0.0618
     35 H           6.4605    0.9061    1.0146 H       1  UNL11       0.0620
     36 H           2.5741   -0.9772    1.5927 H       1  UNL11       0.1562
     37 H           1.9704   -1.0990   -1.9019 H       1  UNL11       0.0652
     38 H           0.0588   -2.0933   -3.0230 H       1  UNL11       0.0619
     39 H          -1.9705   -2.6191   -1.7655 H       1  UNL11       0.0636
     40 H          -3.1885   -2.1339    0.2352 H       1  UNL11       0.0394
     41 H          -2.5169   -1.3313    1.6684 H       1  UNL11       0.0394
     42 H          -0.2091   -6.0961    1.5407 H       1  UNL11       0.4828
     43 H          -4.5504   -2.4650    1.9085 H       1  UNL11       0.0314
     44 H          -4.2780   -2.7724    3.7158 H       1  UNL11       0.0314
     45 H          -6.4481   -3.5591    3.0741 H       1  UNL11       0.0268
     46 H          -5.8215   -4.2666    1.5447 H       1  UNL11       0.0268
     47 H          -6.1521   -5.5055    4.1897 H       1  UNL11       0.0269
     48 H          -5.6701   -6.2610    2.6015 H       1  UNL11       0.0269
     49 H          -3.9605   -5.1722    4.8467 H       1  UNL11       0.0316
     50 H          -3.9696   -6.7985    4.0279 H       1  UNL11       0.0316
@<TRIPOS>BOND
     1     1     2    2
     2     2     3    1
     3     2    10   am
     4     3     4    1
     5     3    29    1
     6     3    30    1
     7     4     5   ar
     8     5     6   ar
     9     5    31    1
    10     6     7   ar
    11     6    32    1
    12     7     8   ar
    13     7    33    1
    14     8     9   ar
    15     8    34    1
    16     9     4   ar
    17     9    35    1
    18    10    11    1
    19    10    36    1
    20    11    12   ar
    21    12    13   ar
    22    12    37    1
    23    13    14   ar
    24    13    38    1
    25    14    15   ar
    26    14    39    1
    27    15    16    1
    28    15    28   ar
    29    16    17    1
    30    16    40    1
    31    16    41    1
    32    17    18    2
    33    18    19    1
    34    19    20   am
    35    19    42    1
    36    20    21    2
    37    20    22    1
    38    22    23    2
    39    23    24    1
    40    23    17    1
    41    24    25    1
    42    24    43    1
    43    24    44    1
    44    25    26    1
    45    25    45    1
    46    25    46    1
    47    26    27    1
    48    26    47    1
    49    26    48    1
    50    27    22    1
    51    27    49    1
    52    27    50    1
    53    28    11   ar
@<TRIPOS>MOLECULE
*****
 50 53 0 0 0
SMALL
GASTEIGER

@<TRIPOS>ATOM
      1 O           3.7010    1.1906    1.2952 O.2     1  UNL11      -0.2751
      2 C           2.7621    0.8145    0.5548 C.2     1  UNL11       0.2226
      3 C           2.2832    1.7140   -0.5628 C.3     1  UNL11       0.0495
      4 C           2.4824    3.1292   -0.2196 C.ar    1  UNL11      -0.0386
      5 C           3.7282    3.6580    0.0351 C.ar    1  UNL11      -0.0581
      6 C           3.9229    4.9844    0.3540 C.ar    1  UNL11      -0.0615
      7 C           2.8560    5.8536    0.4328 C.ar    1  UNL11      -0.0617
      8 C           1.6005    5.3421    0.1809 C.ar    1  UNL11      -0.0615
      9 C           1.4078    4.0146   -0.1378 C.ar    1  UNL11      -0.0581
     10 N           2.1622   -0.4319    0.7630 N.am    1  UNL11      -0.2701
     11 C           1.1107   -1.0132    0.0199 C.ar    1  UNL11       0.1252
     12 C           1.0978   -1.3103   -1.3106 C.ar    1  UNL11      -0.0215
     13 C           0.0171   -1.8765   -1.9634 C.ar    1  UNL11      -0.0568
     14 C          -1.1384   -2.1684   -1.2329 C.ar    1  UNL11      -0.0399
     15 C          -1.1106   -1.8653    0.0970 C.ar    1  UNL11       0.0494
     16 C          -2.2999   -2.1256    0.9422 C.3     1  UNL11       0.0380
     17 C          -2.2152   -3.4891    1.5145 C.2     1  UNL11       0.1165
     18 N          -1.1670   -3.8244    2.3300 N.2     1  UNL11      -0.0076
     19 N          -1.1079   -5.0043    2.8736 N.am    1  UNL11      -0.0358
     20 C          -2.0321   -5.9626    2.6925 C.2     1  UNL11       0.4340
     21 O          -1.9537   -7.0981    3.2296 O.2     1  UNL11      -0.2120
     22 C          -3.1177   -5.6756    1.8729 C.2     1  UNL11       0.0740
     23 C          -3.1725   -4.4262    1.3001 C.2     1  UNL11      -0.0072
     24 C          -4.3464   -4.1874    0.3902 C.3     1  UNL11      -0.0252
     25 C          -4.5210   -5.3876   -0.5102 C.3     1  UNL11      -0.0487
     26 C          -4.5226   -6.7007    0.1811 C.3     1  UNL11      -0.0484
     27 C          -4.1907   -6.6410    1.6281 C.3     1  UNL11      -0.0176
     28 N          -0.0378   -1.3157    0.6896 N.ar    1  UNL11      -0.2364
     29 H           2.8168    1.4302   -1.4739 H       1  UNL11       0.0407
     30 H           1.2094    1.4521   -0.7017 H       1  UNL11       0.0407
     31 H           4.5756    2.9766   -0.0273 H       1  UNL11       0.0620
     32 H           4.9123    5.4068    0.5577 H       1  UNL11       0.0618
     33 H           3.0089    6.9067    0.6850 H       1  UNL11       0.0618
     34 H           0.7552    6.0116    0.2373 H       1  UNL11       0.0618
     35 H           0.4306    3.5820   -0.3411 H       1  UNL11       0.0620
     36 H           2.5741   -0.9772    1.5927 H       1  UNL11       0.1562
     37 H           1.9704   -1.0990   -1.9019 H       1  UNL11       0.0652
     38 H           0.0588   -2.0933   -3.0230 H       1  UNL11       0.0619
     39 H          -1.9705   -2.6191   -1.7655 H       1  UNL11       0.0636
     40 H          -3.1885   -2.1339    0.2352 H       1  UNL11       0.0394
     41 H          -2.5169   -1.3313    1.6684 H       1  UNL11       0.0394
     42 H          -0.3025   -5.2770    3.5062 H       1  UNL11       0.4828
     43 H          -4.0462   -3.3602   -0.2988 H       1  UNL11       0.0314
     44 H          -5.2312   -3.9775    0.9856 H       1  UNL11       0.0314
     45 H          -5.5024   -5.2273   -1.0403 H       1  UNL11       0.0268
     46 H          -3.7268   -5.3312   -1.3019 H       1  UNL11       0.0268
     47 H          -5.5321   -7.1885    0.0881 H       1  UNL11       0.0269
     48 H          -3.7634   -7.3680   -0.3181 H       1  UNL11       0.0269
     49 H          -5.0974   -6.3536    2.1999 H       1  UNL11       0.0316
     50 H          -3.8620   -7.6665    1.9438 H       1  UNL11       0.0316
@<TRIPOS>BOND
     1     1     2    2
     2     2     3    1
     3     2    10   am
     4     3     4    1
     5     3    29    1
     6     3    30    1
     7     4     5   ar
     8     5     6   ar
     9     5    31    1
    10     6     7   ar
    11     6    32    1
    12     7     8   ar
    13     7    33    1
    14     8     9   ar
    15     8    34    1
    16     9     4   ar
    17     9    35    1
    18    10    11    1
    19    10    36    1
    20    11    12   ar
    21    12    13   ar
    22    12    37    1
    23    13    14   ar
    24    13    38    1
    25    14    15   ar
    26    14    39    1
    27    15    16    1
    28    15    28   ar
    29    16    17    1
    30    16    40    1
    31    16    41    1
    32    17    18    2
    33    18    19    1
    34    19    20   am
    35    19    42    1
    36    20    21    2
    37    20    22    1
    38    22    23    2
    39    23    24    1
    40    23    17    1
    41    24    25    1
    42    24    43    1
    43    24    44    1
    44    25    26    1
    45    25    45    1
    46    25    46    1
    47    26    27    1
    48    26    47    1
    49    26    48    1
    50    27    22    1
    51    27    49    1
    52    27    50    1
    53    28    11   ar
@<TRIPOS>MOLECULE
*****
 50 53 0 0 0
SMALL
GASTEIGER

@<TRIPOS>ATOM
      1 O           3.3896    1.2954    1.6538 O.2     1  UNL11      -0.2751
      2 C           2.3997    0.9298    0.9773 C.2     1  UNL11       0.2226
      3 C           1.4660    1.9676    0.3952 C.3     1  UNL11       0.0495
      4 C           0.8672    1.4902   -0.8593 C.ar    1  UNL11      -0.0386
      5 C           0.0825    0.3601   -0.9186 C.ar    1  UNL11      -0.0581
      6 C          -0.4851   -0.0915   -2.0904 C.ar    1  UNL11      -0.0615
      7 C          -0.2858    0.5840   -3.2753 C.ar    1  UNL11      -0.0617
      8 C           0.4974    1.7183   -3.2355 C.ar    1  UNL11      -0.0615
      9 C           1.0645    2.1683   -2.0622 C.ar    1  UNL11      -0.0581
     10 N           2.1622   -0.4319    0.7630 N.am    1  UNL11      -0.2701
     11 C           1.1107   -1.0132    0.0199 C.ar    1  UNL11       0.1252
     12 C           1.0978   -1.3103   -1.3106 C.ar    1  UNL11      -0.0215
     13 C           0.0171   -1.8765   -1.9634 C.ar    1  UNL11      -0.0568
     14 C          -1.1384   -2.1684   -1.2329 C.ar    1  UNL11      -0.0399
     15 C          -1.1106   -1.8653    0.0970 C.ar    1  UNL11       0.0494
     16 C          -2.2999   -2.1256    0.9422 C.3     1  UNL11       0.0380
     17 C          -2.2152   -3.4891    1.5145 C.2     1  UNL11       0.1165
     18 N          -0.9912   -4.0514    1.7630 N.2     1  UNL11      -0.0076
     19 N          -0.9069   -5.2295    2.3074 N.am    1  UNL11      -0.0358
     20 C          -1.9695   -5.9717    2.6615 C.2     1  UNL11       0.4340
     21 O          -1.8632   -7.1102    3.1875 O.2     1  UNL11      -0.2120
     22 C          -3.2367   -5.4488    2.4309 C.2     1  UNL11       0.0740
     23 C          -3.3180   -4.2030    1.8533 C.2     1  UNL11      -0.0072
     24 C          -4.7133   -3.7071    1.5890 C.3     1  UNL11      -0.0252
     25 C          -5.5236   -4.8255    0.9774 C.3     1  UNL11      -0.0487
     26 C          -5.4464   -6.1245    1.6907 C.3     1  UNL11      -0.0484
     27 C          -4.4586   -6.1658    2.7999 C.3     1  UNL11      -0.0176
     28 N          -0.0378   -1.3157    0.6896 N.ar    1  UNL11      -0.2364
     29 H           0.7116    2.2017    1.1510 H       1  UNL11       0.0407
     30 H           2.0977    2.8740    0.2526 H       1  UNL11       0.0407
     31 H          -0.0802   -0.1772    0.0147 H       1  UNL11       0.0620
     32 H          -1.1086   -0.9901   -2.1401 H       1  UNL11       0.0618
     33 H          -0.7361    0.2275   -4.2059 H       1  UNL11       0.0618
     34 H           0.6609    2.2589   -4.1558 H       1  UNL11       0.0618
     35 H           1.6867    3.0583   -1.9991 H       1  UNL11       0.0620
     36 H           2.8815   -1.0762    1.2352 H       1  UNL11       0.1562
     37 H           1.9704   -1.0990   -1.9019 H       1  UNL11       0.0652
     38 H           0.0588   -2.0933   -3.0230 H       1  UNL11       0.0619
     39 H          -1.9705   -2.6191   -1.7655 H       1  UNL11       0.0636
     40 H          -3.1885   -2.1339    0.2352 H       1  UNL11       0.0394
     41 H          -2.5169   -1.3313    1.6684 H       1  UNL11       0.0394
     42 H           0.0335   -5.6764    2.5048 H       1  UNL11       0.4828
     43 H          -4.6268   -2.9452    0.7758 H       1  UNL11       0.0314
     44 H          -5.1468   -3.3315    2.5123 H       1  UNL11       0.0314
     45 H          -6.5875   -4.4543    0.9619 H       1  UNL11       0.0268
     46 H          -5.2107   -4.9177   -0.0971 H       1  UNL11       0.0268
     47 H          -6.4496   -6.3907    2.1246 H       1  UNL11       0.0269
     48 H          -5.1623   -6.9235    0.9479 H       1  UNL11       0.0269
     49 H          -4.9072   -5.7095    3.7066 H       1  UNL11       0.0316
     50 H          -4.2226   -7.2437    3.0045 H       1  UNL11       0.0316
@<TRIPOS>BOND
     1     1     2    2
     2     2     3    1
     3     2    10   am
     4     3     4    1
     5     3    29    1
     6     3    30    1
     7     4     5   ar
     8     5     6   ar
     9     5    31    1
    10     6     7   ar
    11     6    32    1
    12     7     8   ar
    13     7    33    1
    14     8     9   ar
    15     8    34    1
    16     9     4   ar
    17     9    35    1
    18    10    11    1
    19    10    36    1
    20    11    12   ar
    21    12    13   ar
    22    12    37    1
    23    13    14   ar
    24    13    38    1
    25    14    15   ar
    26    14    39    1
    27    15    16    1
    28    15    28   ar
    29    16    17    1
    30    16    40    1
    31    16    41    1
    32    17    18    2
    33    18    19    1
    34    19    20   am
    35    19    42    1
    36    20    21    2
    37    20    22    1
    38    22    23    2
    39    23    24    1
    40    23    17    1
    41    24    25    1
    42    24    43    1
    43    24    44    1
    44    25    26    1
    45    25    45    1
    46    25    46    1
    47    26    27    1
    48    26    47    1
    49    26    48    1
    50    27    22    1
    51    27    49    1
    52    27    50    1
    53    28    11   ar
@<TRIPOS>MOLECULE
*****
 50 53 0 0 0
SMALL
GASTEIGER

@<TRIPOS>ATOM
      1 O           3.1574    1.1623    2.0867 O.2     1  UNL11      -0.2751
      2 C           2.1323    0.7669    1.4832 C.2     1  UNL11       0.2226
      3 C           0.8660    1.5922    1.5379 C.3     1  UNL11       0.0495
      4 C           0.7837    2.3446    2.7977 C.ar    1  UNL11      -0.0386
      5 C           1.7282    3.2783    3.1621 C.ar    1  UNL11      -0.0581
      6 C           1.6558    3.9900    4.3399 C.ar    1  UNL11      -0.0615
      7 C           0.6132    3.7917    5.2194 C.ar    1  UNL11      -0.0617
      8 C          -0.3425    2.8605    4.8715 C.ar    1  UNL11      -0.0615
      9 C          -0.2681    2.1493    3.6927 C.ar    1  UNL11      -0.0581
     10 N           2.1622   -0.4319    0.7630 N.am    1  UNL11      -0.2701
     11 C           1.1107   -1.0132    0.0199 C.ar    1  UNL11       0.1252
     12 C           1.0978   -1.3103   -1.3106 C.ar    1  UNL11      -0.0215
     13 C           0.0171   -1.8765   -1.9634 C.ar    1  UNL11      -0.0568
     14 C          -1.1384   -2.1684   -1.2329 C.ar    1  UNL11      -0.0399
     15 C          -1.1106   -1.8653    0.0970 C.ar    1  UNL11       0.0494
     16 C          -2.2999   -2.1256    0.9422 C.3     1  UNL11       0.0380
     17 C          -2.2152   -3.4891    1.5145 C.2     1  UNL11       0.1165
     18 N          -1.5611   -4.4787    0.8295 N.2     1  UNL11      -0.0076
     19 N          -1.4423   -5.6669    1.3444 N.am    1  UNL11      -0.0358
     20 C          -1.9299   -6.0176    2.5462 C.2     1  UNL11       0.4340
     21 O          -1.8023   -7.1748    3.0244 O.2     1  UNL11      -0.2120
     22 C          -2.6037   -5.0513    3.2843 C.2     1  UNL11       0.0740
     23 C          -2.7270   -3.7974    2.7325 C.2     1  UNL11      -0.0072
     24 C          -3.5018   -2.8059    3.5568 C.3     1  UNL11      -0.0252
     25 C          -4.7504   -3.4744    4.0821 C.3     1  UNL11      -0.0487
     26 C          -4.5365   -4.7931    4.7281 C.3     1  UNL11      -0.0484
     27 C          -3.1533   -5.3236    4.6136 C.3     1  UNL11      -0.0176
     28 N          -0.0378   -1.3157    0.6896 N.ar    1  UNL11      -0.2364
     29 H           0.8547    2.2477    0.6630 H       1  UNL11       0.0407
     30 H           0.0384    0.8557    1.4220 H       1  UNL11       0.0407
     31 H           2.5537    3.4408    2.4704 H       1  UNL11       0.0620
     32 H           2.4060    4.7322    4.6320 H       1  UNL11       0.0618
     33 H           0.5538    4.3562    6.1542 H       1  UNL11       0.0618
     34 H          -1.1662    2.6956    5.5500 H       1  UNL11       0.0618
     35 H          -1.0055    1.4086    3.3912 H       1  UNL11       0.0620
     36 H           3.1088   -0.9394    0.8065 H       1  UNL11       0.1562
     37 H           1.9704   -1.0990   -1.9019 H       1  UNL11       0.0652
     38 H           0.0588   -2.0933   -3.0230 H       1  UNL11       0.0619
     39 H          -1.9705   -2.6191   -1.7655 H       1  UNL11       0.0636
     40 H          -3.1885   -2.1339    0.2352 H       1  UNL11       0.0394
     41 H          -2.5169   -1.3313    1.6684 H       1  UNL11       0.0394
     42 H          -0.9391   -6.4418    0.8251 H       1  UNL11       0.4828
     43 H          -3.8765   -2.0303    2.8446 H       1  UNL11       0.0314
     44 H          -2.8680   -2.4185    4.3503 H       1  UNL11       0.0314
     45 H          -5.1940   -2.7481    4.8209 H       1  UNL11       0.0268
     46 H          -5.4804   -3.5375    3.2312 H       1  UNL11       0.0268
     47 H          -4.7839   -4.7346    5.8240 H       1  UNL11       0.0269
     48 H          -5.2318   -5.5414    4.2511 H       1  UNL11       0.0269
     49 H          -2.5159   -4.8539    5.3912 H       1  UNL11       0.0316
     50 H          -3.1986   -6.4310    4.7894 H       1  UNL11       0.0316
@<TRIPOS>BOND
     1     1     2    2
     2     2     3    1
     3     2    10   am
     4     3     4    1
     5     3    29    1
     6     3    30    1
     7     4     5   ar
     8     5     6   ar
     9     5    31    1
    10     6     7   ar
    11     6    32    1
    12     7     8   ar
    13     7    33    1
    14     8     9   ar
    15     8    34    1
    16     9     4   ar
    17     9    35    1
    18    10    11    1
    19    10    36    1
    20    11    12   ar
    21    12    13   ar
    22    12    37    1
    23    13    14   ar
    24    13    38    1
    25    14    15   ar
    26    14    39    1
    27    15    16    1
    28    15    28   ar
    29    16    17    1
    30    16    40    1
    31    16    41    1
    32    17    18    2
    33    18    19    1
    34    19    20   am
    35    19    42    1
    36    20    21    2
    37    20    22    1
    38    22    23    2
    39    23    24    1
    40    23    17    1
    41    24    25    1
    42    24    43    1
    43    24    44    1
    44    25    26    1
    45    25    45    1
    46    25    46    1
    47    26    27    1
    48    26    47    1
    49    26    48    1
    50    27    22    1
    51    27    49    1
    52    27    50    1
    53    28    11   ar
@<TRIPOS>MOLECULE
*****
 50 53 0 0 0
SMALL
GASTEIGER

@<TRIPOS>ATOM
      1 O           4.0570   -0.4365    2.0643 O.2     1  UNL11      -0.2751
      2 C           3.1975   -1.0938    1.4314 C.2     1  UNL11       0.2226
      3 C           3.2861   -2.6032    1.3953 C.3     1  UNL11       0.0495
      4 C           3.4246   -3.0881    0.0148 C.ar    1  UNL11      -0.0386
      5 C           4.4884   -2.7378   -0.7866 C.ar    1  UNL11      -0.0581
      6 C           4.6267   -3.1912   -2.0806 C.ar    1  UNL11      -0.0615
      7 C           3.6859   -4.0313   -2.6366 C.ar    1  UNL11      -0.0617
      8 C           2.6133   -4.3931   -1.8491 C.ar    1  UNL11      -0.0615
      9 C           2.4767   -3.9381   -0.5548 C.ar    1  UNL11      -0.0581
     10 N           2.1622   -0.4319    0.7630 N.am    1  UNL11      -0.2701
     11 C           1.1107   -1.0132    0.0199 C.ar    1  UNL11       0.1252
     12 C           1.0978   -1.3103   -1.3106 C.ar    1  UNL11      -0.0215
     13 C           0.0171   -1.8765   -1.9634 C.ar    1  UNL11      -0.0568
     14 C          -1.1384   -2.1684   -1.2329 C.ar    1  UNL11      -0.0399
     15 C          -1.1106   -1.8653    0.0970 C.ar    1  UNL11       0.0494
     16 C          -2.2999   -2.1256    0.9422 C.3     1  UNL11       0.0380
     17 C          -1.9437   -3.0710    2.0253 C.2     1  UNL11       0.1165
     18 N          -1.4893   -2.5947    3.2265 N.2     1  UNL11      -0.0076
     19 N          -1.2173   -3.4146    4.1987 N.am    1  UNL11      -0.0358
     20 C          -1.3523   -4.7488    4.1168 C.2     1  UNL11       0.4340
     21 O          -1.0829   -5.5230    5.0719 O.2     1  UNL11      -0.2120
     22 C          -1.8097   -5.2861    2.9191 C.2     1  UNL11       0.0740
     23 C          -2.0937   -4.4130    1.8949 C.2     1  UNL11      -0.0072
     24 C          -2.5437   -5.0538    0.6104 C.3     1  UNL11      -0.0252
     25 C          -1.6467   -6.2312    0.3092 C.3     1  UNL11      -0.0487
     26 C          -1.4389   -7.1718    1.4380 C.3     1  UNL11      -0.0484
     27 C          -2.0132   -6.7240    2.7331 C.3     1  UNL11      -0.0176
     28 N          -0.0378   -1.3157    0.6896 N.ar    1  UNL11      -0.2364
     29 H           4.1264   -2.9051    2.0261 H       1  UNL11       0.0407
     30 H           2.3495   -2.9573    1.8836 H       1  UNL11       0.0407
     31 H           5.2361   -2.0755   -0.3524 H       1  UNL11       0.0620
     32 H           5.4712   -2.9134   -2.7198 H       1  UNL11       0.0618
     33 H           3.7946   -4.3927   -3.6631 H       1  UNL11       0.0618
     34 H           1.8691   -5.0521   -2.2707 H       1  UNL11       0.0618
     35 H           1.6425   -4.2053    0.0903 H       1  UNL11       0.0620
     36 H           2.2084    0.6388    0.8460 H       1  UNL11       0.1562
     37 H           1.9704   -1.0990   -1.9019 H       1  UNL11       0.0652
     38 H           0.0588   -2.0933   -3.0230 H       1  UNL11       0.0619
     39 H          -1.9705   -2.6191   -1.7655 H       1  UNL11       0.0636
     40 H          -3.0411   -2.6713    0.2771 H       1  UNL11       0.0394
     41 H          -2.8228   -1.2185    1.2727 H       1  UNL11       0.0394
     42 H          -0.8646   -3.0596    5.1329 H       1  UNL11       0.4828
     43 H          -2.3238   -4.3177   -0.2014 H       1  UNL11       0.0314
     44 H          -3.5908   -5.3341    0.6912 H       1  UNL11       0.0314
     45 H          -2.1304   -6.7657   -0.5570 H       1  UNL11       0.0268
     46 H          -0.6761   -5.8224   -0.0803 H       1  UNL11       0.0268
     47 H          -1.8916   -8.1735    1.1985 H       1  UNL11       0.0269
     48 H          -0.3302   -7.3141    1.5848 H       1  UNL11       0.0269
     49 H          -3.0974   -6.9595    2.7535 H       1  UNL11       0.0316
     50 H          -1.4940   -7.2926    3.5496 H       1  UNL11       0.0316
@<TRIPOS>BOND
     1     1     2    2
     2     2     3    1
     3     2    10   am
     4     3     4    1
     5     3    29    1
     6     3    30    1
     7     4     5   ar
     8     5     6   ar
     9     5    31    1
    10     6     7   ar
    11     6    32    1
    12     7     8   ar
    13     7    33    1
    14     8     9   ar
    15     8    34    1
    16     9     4   ar
    17     9    35    1
    18    10    11    1
    19    10    36    1
    20    11    12   ar
    21    12    13   ar
    22    12    37    1
    23    13    14   ar
    24    13    38    1
    25    14    15   ar
    26    14    39    1
    27    15    16    1
    28    15    28   ar
    29    16    17    1
    30    16    40    1
    31    16    41    1
    32    17    18    2
    33    18    19    1
    34    19    20   am
    35    19    42    1
    36    20    21    2
    37    20    22    1
    38    22    23    2
    39    23    24    1
    40    23    17    1
    41    24    25    1
    42    24    43    1
    43    24    44    1
    44    25    26    1
    45    25    45    1
    46    25    46    1
    47    26    27    1
    48    26    47    1
    49    26    48    1
    50    27    22    1
    51    27    49    1
    52    27    50    1
    53    28    11   ar
@<TRIPOS>MOLECULE
*****
 50 53 0 0 0
SMALL
GASTEIGER

@<TRIPOS>ATOM
      1 O           3.7010    1.1906    1.2952 O.2     1  UNL11      -0.2751
      2 C           2.7621    0.8145    0.5548 C.2     1  UNL11       0.2226
      3 C           2.2832    1.7140   -0.5628 C.3     1  UNL11       0.0495
      4 C           0.8649    2.0579   -0.3888 C.ar    1  UNL11      -0.0386
      5 C           0.3366    3.2521   -0.8264 C.ar    1  UNL11      -0.0581
      6 C          -0.9927    3.5799   -0.6698 C.ar    1  UNL11      -0.0615
      7 C          -1.8654    2.7074   -0.0558 C.ar    1  UNL11      -0.0617
      8 C          -1.3545    1.5063    0.3891 C.ar    1  UNL11      -0.0615
      9 C          -0.0241    1.1804    0.2317 C.ar    1  UNL11      -0.0581
     10 N           2.1622   -0.4319    0.7630 N.am    1  UNL11      -0.2701
     11 C           1.1107   -1.0132    0.0199 C.ar    1  UNL11       0.1252
     12 C           1.0978   -1.3103   -1.3106 C.ar    1  UNL11      -0.0215
     13 C           0.0171   -1.8765   -1.9634 C.ar    1  UNL11      -0.0568
     14 C          -1.1384   -2.1684   -1.2329 C.ar    1  UNL11      -0.0399
     15 C          -1.1106   -1.8653    0.0970 C.ar    1  UNL11       0.0494
     16 C          -2.2999   -2.1256    0.9422 C.3     1  UNL11       0.0380
     17 C          -2.0254   -1.6977    2.3333 C.2     1  UNL11       0.1165
     18 N          -2.0837   -2.6101    3.3534 N.2     1  UNL11      -0.0076
     19 N          -1.7999   -2.2538    4.5715 N.am    1  UNL11      -0.0358
     20 C          -1.4380   -1.0093    4.9257 C.2     1  UNL11       0.4340
     21 O          -1.1675   -0.6877    6.1121 O.2     1  UNL11      -0.2120
     22 C          -1.3632   -0.0429    3.9292 C.2     1  UNL11       0.0740
     23 C          -1.6664   -0.4267    2.6436 C.2     1  UNL11      -0.0072
     24 C          -1.6099    0.6698    1.6154 C.3     1  UNL11      -0.0252
     25 C          -2.2957    1.8967    2.1686 C.3     1  UNL11      -0.0487
     26 C          -1.8708    2.2964    3.5331 C.3     1  UNL11      -0.0484
     27 C          -0.9573    1.3364    4.2051 C.3     1  UNL11      -0.0176
     28 N          -0.0378   -1.3157    0.6896 N.ar    1  UNL11      -0.2364
     29 H           2.9246    2.5992   -0.5792 H       1  UNL11       0.0407
     30 H           2.4746    1.1378   -1.4968 H       1  UNL11       0.0407
     31 H           1.0209    3.9451   -1.3140 H       1  UNL11       0.0620
     32 H          -1.4147    4.5290   -1.0162 H       1  UNL11       0.0618
     33 H          -2.9208    2.9656    0.0686 H       1  UNL11       0.0618
     34 H          -2.0267    0.8120    0.8706 H       1  UNL11       0.0618
     35 H           0.4081    0.2419    0.5721 H       1  UNL11       0.0620
     36 H           2.5741   -0.9772    1.5927 H       1  UNL11       0.1562
     37 H           1.9704   -1.0990   -1.9019 H       1  UNL11       0.0652
     38 H           0.0588   -2.0933   -3.0230 H       1  UNL11       0.0619
     39 H          -1.9705   -2.6191   -1.7655 H       1  UNL11       0.0636
     40 H          -2.4168   -3.2546    0.9758 H       1  UNL11       0.0394
     41 H          -3.2414   -1.7508    0.5197 H       1  UNL11       0.0394
     42 H          -1.8414   -2.9492    5.3701 H       1  UNL11       0.4828
     43 H          -2.2618    0.3407    0.7693 H       1  UNL11       0.0314
     44 H          -0.5753    0.8564    1.3392 H       1  UNL11       0.0314
     45 H          -2.0737    2.7234    1.4356 H       1  UNL11       0.0268
     46 H          -3.4026    1.7175    2.1096 H       1  UNL11       0.0268
     47 H          -1.3477    3.2920    3.5020 H       1  UNL11       0.0269
     48 H          -2.7903    2.4034    4.1765 H       1  UNL11       0.0269
     49 H           0.0793    1.5058    3.8468 H       1  UNL11       0.0316
     50 H          -1.0063    1.5363    5.3083 H       1  UNL11       0.0316
@<TRIPOS>BOND
     1     1     2    2
     2     2     3    1
     3     2    10   am
     4     3     4    1
     5     3    29    1
     6     3    30    1
     7     4     5   ar
     8     5     6   ar
     9     5    31    1
    10     6     7   ar
    11     6    32    1
    12     7     8   ar
    13     7    33    1
    14     8     9   ar
    15     8    34    1
    16     9     4   ar
    17     9    35    1
    18    10    11    1
    19    10    36    1
    20    11    12   ar
    21    12    13   ar
    22    12    37    1
    23    13    14   ar
    24    13    38    1
    25    14    15   ar
    26    14    39    1
    27    15    16    1
    28    15    28   ar
    29    16    17    1
    30    16    40    1
    31    16    41    1
    32    17    18    2
    33    18    19    1
    34    19    20   am
    35    19    42    1
    36    20    21    2
    37    20    22    1
    38    22    23    2
    39    23    24    1
    40    23    17    1
    41    24    25    1
    42    24    43    1
    43    24    44    1
    44    25    26    1
    45    25    45    1
    46    25    46    1
    47    26    27    1
    48    26    47    1
    49    26    48    1
    50    27    22    1
    51    27    49    1
    52    27    50    1
    53    28    11   ar
@<TRIPOS>MOLECULE
*****
 50 53 0 0 0
SMALL
GASTEIGER

@<TRIPOS>ATOM
      1 O           3.3247    0.1151    2.6691 O.2     1  UNL11      -0.2751
      2 C           2.3408   -0.4628    2.1500 C.2     1  UNL11       0.2226
      3 C           1.3501   -1.1915    3.0304 C.3     1  UNL11       0.0495
      4 C           0.7519   -2.3291    2.3175 C.ar    1  UNL11      -0.0386
      5 C          -0.4042   -2.2107    1.5785 C.ar    1  UNL11      -0.0581
      6 C          -0.9689   -3.2719    0.9047 C.ar    1  UNL11      -0.0615
      7 C          -0.3872   -4.5209    0.9442 C.ar    1  UNL11      -0.0617
      8 C           0.7713   -4.6588    1.6793 C.ar    1  UNL11      -0.0615
      9 C           1.3346   -3.5958    2.3529 C.ar    1  UNL11      -0.0581
     10 N           2.1622   -0.4319    0.7630 N.am    1  UNL11      -0.2701
     11 C           1.1107   -1.0132    0.0199 C.ar    1  UNL11       0.1252
     12 C           1.0978   -1.3103   -1.3106 C.ar    1  UNL11      -0.0215
     13 C           0.0171   -1.8765   -1.9634 C.ar    1  UNL11      -0.0568
     14 C          -1.1384   -2.1684   -1.2329 C.ar    1  UNL11      -0.0399
     15 C          -1.1106   -1.8653    0.0970 C.ar    1  UNL11       0.0494
     16 C          -2.2999   -2.1256    0.9422 C.3     1  UNL11       0.0380
     17 C          -2.2152   -3.4891    1.5145 C.2     1  UNL11       0.1165
     18 N          -1.6064   -3.6856    2.7257 N.2     1  UNL11      -0.0076
     19 N          -1.5673   -4.8718    3.2574 N.am    1  UNL11      -0.0358
     20 C          -2.0992   -5.9676    2.6904 C.2     1  UNL11       0.4340
     21 O          -2.0493   -7.1062    3.2245 O.2     1  UNL11      -0.2120
     22 C          -2.7292   -5.8250    1.4595 C.2     1  UNL11       0.0740
     23 C          -2.7651   -4.5678    0.9025 C.2     1  UNL11      -0.0072
     24 C          -3.4213   -4.4819   -0.4484 C.3     1  UNL11      -0.0252
     25 C          -2.9281   -5.6229   -1.3066 C.3     1  UNL11      -0.0487
     26 C          -2.9823   -6.9619   -0.6691 C.3     1  UNL11      -0.0484
     27 C          -3.3602   -6.9505    0.7678 C.3     1  UNL11      -0.0176
     28 N          -0.0378   -1.3157    0.6896 N.ar    1  UNL11      -0.2364
     29 H           1.8733   -1.5015    3.9389 H       1  UNL11       0.0407
     30 H           0.5991   -0.4202    3.3165 H       1  UNL11       0.0407
     31 H          -0.8677   -1.2258    1.5420 H       1  UNL11       0.0620
     32 H          -1.8884   -3.1803    0.3173 H       1  UNL11       0.0618
     33 H          -0.8336   -5.3639    0.4094 H       1  UNL11       0.0618
     34 H           1.2393   -5.6311    1.7181 H       1  UNL11       0.0618
     35 H           2.2466   -3.6733    2.9409 H       1  UNL11       0.0620
     36 H           2.9343    0.1018    0.2390 H       1  UNL11       0.1562
     37 H           1.9704   -1.0990   -1.9019 H       1  UNL11       0.0652
     38 H           0.0588   -2.0933   -3.0230 H       1  UNL11       0.0619
     39 H          -1.9705   -2.6191   -1.7655 H       1  UNL11       0.0636
     40 H          -3.1885   -2.1339    0.2352 H       1  UNL11       0.0394
     41 H          -2.5169   -1.3313    1.6684 H       1  UNL11       0.0394
     42 H          -1.0992   -5.0379    4.1936 H       1  UNL11       0.4828
     43 H          -3.0124   -3.5644   -0.9383 H       1  UNL11       0.0314
     44 H          -4.5017   -4.4838   -0.3286 H       1  UNL11       0.0314
     45 H          -3.5733   -5.6070   -2.2304 H       1  UNL11       0.0268
     46 H          -1.8904   -5.3622   -1.6473 H       1  UNL11       0.0268
     47 H          -3.7214   -7.6189   -1.2054 H       1  UNL11       0.0269
     48 H          -1.9641   -7.4386   -0.7525 H       1  UNL11       0.0269
     49 H          -4.4642   -6.8787    0.8552 H       1  UNL11       0.0316
     50 H          -3.0142   -7.9186    1.2177 H       1  UNL11       0.0316
@<TRIPOS>BOND
     1     1     2    2
     2     2     3    1
     3     2    10   am
     4     3     4    1
     5     3    29    1
     6     3    30    1
     7     4     5   ar
     8     5     6   ar
     9     5    31    1
    10     6     7   ar
    11     6    32    1
    12     7     8   ar
    13     7    33    1
    14     8     9   ar
    15     8    34    1
    16     9     4   ar
    17     9    35    1
    18    10    11    1
    19    10    36    1
    20    11    12   ar
    21    12    13   ar
    22    12    37    1
    23    13    14   ar
    24    13    38    1
    25    14    15   ar
    26    14    39    1
    27    15    16    1
    28    15    28   ar
    29    16    17    1
    30    16    40    1
    31    16    41    1
    32    17    18    2
    33    18    19    1
    34    19    20   am
    35    19    42    1
    36    20    21    2
    37    20    22    1
    38    22    23    2
    39    23    24    1
    40    23    17    1
    41    24    25    1
    42    24    43    1
    43    24    44    1
    44    25    26    1
    45    25    45    1
    46    25    46    1
    47    26    27    1
    48    26    47    1
    49    26    48    1
    50    27    22    1
    51    27    49    1
    52    27    50    1
    53    28    11   ar
@<TRIPOS>MOLECULE
*****
 50 53 0 0 0
SMALL
GASTEIGER

@<TRIPOS>ATOM
      1 O           3.1574    1.1623    2.0867 O.2     1  UNL11      -0.2751
      2 C           2.1323    0.7669    1.4832 C.2     1  UNL11       0.2226
      3 C           0.8660    1.5922    1.5379 C.3     1  UNL11       0.0495
      4 C          -0.2155    0.9450    0.7817 C.ar    1  UNL11      -0.0386
      5 C          -0.8302    1.5512   -0.2912 C.ar    1  UNL11      -0.0581
      6 C          -1.8423    0.9492   -1.0070 C.ar    1  UNL11      -0.0615
      7 C          -2.2896   -0.3104   -0.6706 C.ar    1  UNL11      -0.0617
      8 C          -1.6859   -0.9333    0.4013 C.ar    1  UNL11      -0.0615
      9 C          -0.6736   -0.3292    1.1162 C.ar    1  UNL11      -0.0581
     10 N           2.1622   -0.4319    0.7630 N.am    1  UNL11      -0.2701
     11 C           1.1107   -1.0132    0.0199 C.ar    1  UNL11       0.1252
     12 C           1.0978   -1.3103   -1.3106 C.ar    1  UNL11      -0.0215
     13 C           0.0171   -1.8765   -1.9634 C.ar    1  UNL11      -0.0568
     14 C          -1.1384   -2.1684   -1.2329 C.ar    1  UNL11      -0.0399
     15 C          -1.1106   -1.8653    0.0970 C.ar    1  UNL11       0.0494
     16 C          -2.2999   -2.1256    0.9422 C.3     1  UNL11       0.0380
     17 C          -1.9437   -3.0710    2.0253 C.2     1  UNL11       0.1165
     18 N          -0.6649   -3.0987    2.5155 N.2     1  UNL11      -0.0076
     19 N          -0.3539   -3.8931    3.4971 N.am    1  UNL11      -0.0358
     20 C          -1.2232   -4.7245    4.0956 C.2     1  UNL11       0.4340
     21 O          -0.8990   -5.4847    5.0449 O.2     1  UNL11      -0.2120
     22 C          -2.5354   -4.7373    3.6368 C.2     1  UNL11       0.0740
     23 C          -2.8565   -3.8957    2.5973 C.2     1  UNL11      -0.0072
     24 C          -4.2788   -3.9835    2.1152 C.3     1  UNL11      -0.0252
     25 C          -4.6667   -5.4383    1.9944 C.3     1  UNL11      -0.0487
     26 C          -4.3553   -6.2755    3.1795 C.3     1  UNL11      -0.0484
     27 C          -3.5655   -5.5890    4.2343 C.3     1  UNL11      -0.0176
     28 N          -0.0378   -1.3157    0.6896 N.ar    1  UNL11      -0.2364
     29 H           0.6057    1.7379    2.5897 H       1  UNL11       0.0407
     30 H           1.1513    2.5835    1.1174 H       1  UNL11       0.0407
     31 H          -0.4799    2.5460   -0.5631 H       1  UNL11       0.0620
     32 H          -2.3330    1.4296   -1.8599 H       1  UNL11       0.0618
     33 H          -3.0922   -0.7899   -1.2381 H       1  UNL11       0.0618
     34 H          -2.0248   -1.9212    0.6755 H       1  UNL11       0.0618
     35 H          -0.1787   -0.7945    1.9659 H       1  UNL11       0.0620
     36 H           3.1088   -0.9394    0.8065 H       1  UNL11       0.1562
     37 H           1.9704   -1.0990   -1.9019 H       1  UNL11       0.0652
     38 H           0.0588   -2.0933   -3.0230 H       1  UNL11       0.0619
     39 H          -1.9705   -2.6191   -1.7655 H       1  UNL11       0.0636
     40 H          -3.0411   -2.6713    0.2771 H       1  UNL11       0.0394
     41 H          -2.8228   -1.2185    1.2727 H       1  UNL11       0.0394
     42 H           0.6315   -3.9249    3.8857 H       1  UNL11       0.4828
     43 H          -4.2778   -3.6044    1.0638 H       1  UNL11       0.0314
     44 H          -4.9266   -3.4315    2.7913 H       1  UNL11       0.0314
     45 H          -5.7766   -5.4399    1.7994 H       1  UNL11       0.0268
     46 H          -4.1863   -5.8372    1.0611 H       1  UNL11       0.0268
     47 H          -5.3053   -6.6429    3.6571 H       1  UNL11       0.0269
     48 H          -3.7648   -7.1729    2.8376 H       1  UNL11       0.0269
     49 H          -4.2466   -4.9774    4.8616 H       1  UNL11       0.0316
     50 H          -3.0864   -6.3807    4.8692 H       1  UNL11       0.0316
@<TRIPOS>BOND
     1     1     2    2
     2     2     3    1
     3     2    10   am
     4     3     4    1
     5     3    29    1
     6     3    30    1
     7     4     5   ar
     8     5     6   ar
     9     5    31    1
    10     6     7   ar
    11     6    32    1
    12     7     8   ar
    13     7    33    1
    14     8     9   ar
    15     8    34    1
    16     9     4   ar
    17     9    35    1
    18    10    11    1
    19    10    36    1
    20    11    12   ar
    21    12    13   ar
    22    12    37    1
    23    13    14   ar
    24    13    38    1
    25    14    15   ar
    26    14    39    1
    27    15    16    1
    28    15    28   ar
    29    16    17    1
    30    16    40    1
    31    16    41    1
    32    17    18    2
    33    18    19    1
    34    19    20   am
    35    19    42    1
    36    20    21    2
    37    20    22    1
    38    22    23    2
    39    23    24    1
    40    23    17    1
    41    24    25    1
    42    24    43    1
    43    24    44    1
    44    25    26    1
    45    25    45    1
    46    25    46    1
    47    26    27    1
    48    26    47    1
    49    26    48    1
    50    27    22    1
    51    27    49    1
    52    27    50    1
    53    28    11   ar
