@<TRIPOS>MOLECULE
*****
 44 47 0 0 0
SMALL
GASTEIGER

@<TRIPOS>ATOM
      1 O           0.9420    1.9798   -0.5406 O.2     1  UNL11      -0.2683
      2 C          -0.1745    1.5666   -0.2195 C.2     1  UNL11       0.2695
      3 N          -0.2519    0.1207   -0.1042 N.am    1  UNL11      -0.2991
      4 C          -1.4410   -0.5803    0.2381 C.3     1  UNL11       0.0740
      5 C          -2.3062    0.2573    1.1086 C.ar    1  UNL11      -0.0228
      6 C          -1.8695    1.5141    1.4437 C.ar    1  UNL11      -0.0565
      7 C          -2.6605    2.3210    2.2561 C.ar    1  UNL11      -0.0614
      8 C          -3.8621    1.8571    2.7126 C.ar    1  UNL11      -0.0617
      9 C          -4.2667    0.5864    2.3533 C.ar    1  UNL11      -0.0614
     10 C          -3.4957   -0.2375    1.5442 C.ar    1  UNL11      -0.0565
     11 C          -2.2264   -1.0390   -0.9071 C.ar    1  UNL11      -0.0228
     12 C          -2.0384   -2.2720   -1.4823 C.ar    1  UNL11      -0.0565
     13 C          -2.8199   -2.6532   -2.5801 C.ar    1  UNL11      -0.0614
     14 C          -3.7721   -1.7843   -3.0729 C.ar    1  UNL11      -0.0617
     15 C          -3.9797   -0.5408   -2.5125 C.ar    1  UNL11      -0.0614
     16 C          -3.1856   -0.2107   -1.4332 C.ar    1  UNL11      -0.0565
     17 C          -1.3364    2.3674    0.0339 C.2     1  UNL11       0.1988
     18 N          -1.1699    3.6376    0.5218 N.2     1  UNL11       0.0021
     19 N          -2.1464    4.4500    0.7873 N.am    1  UNL11      -0.0351
     20 C          -3.4165    4.0839    0.5943 C.2     1  UNL11       0.4383
     21 O          -4.3861    4.8335    0.8363 O.2     1  UNL11      -0.2116
     22 C          -3.6680    2.8236    0.1064 C.ar    1  UNL11       0.1009
     23 C          -4.9417    2.3825   -0.1153 C.ar    1  UNL11      -0.0441
     24 C          -5.2262    1.1260   -0.6032 C.ar    1  UNL11      -0.0608
     25 C          -4.2047    0.2552   -0.8889 C.ar    1  UNL11      -0.0611
     26 C          -2.8926    0.7023   -0.6633 C.ar    1  UNL11      -0.0513
     27 C          -2.6139    1.9562   -0.1766 C.ar    1  UNL11       0.0282
     28 H           0.6218   -0.3958   -0.2872 H       1  UNL11       0.1500
     29 H          -1.0950   -1.4997    0.8099 H       1  UNL11       0.0599
     30 H          -0.9296    1.9255    1.1108 H       1  UNL11       0.0621
     31 H          -2.3498    3.3218    2.5435 H       1  UNL11       0.0618
     32 H          -4.4978    2.4647    3.3467 H       1  UNL11       0.0618
     33 H          -5.2138    0.2184    2.7119 H       1  UNL11       0.0618
     34 H          -3.8548   -1.2282    1.2883 H       1  UNL11       0.0621
     35 H          -1.3079   -2.9730   -1.1240 H       1  UNL11       0.0621
     36 H          -2.6854   -3.6287   -3.0510 H       1  UNL11       0.0618
     37 H          -4.4083   -2.0311   -3.9264 H       1  UNL11       0.0618
     38 H          -4.7318    0.1285   -2.9125 H       1  UNL11       0.0618
     39 H          -3.3701    0.7856   -1.0042 H       1  UNL11       0.0621
     40 H          -2.0101    5.4320    1.1649 H       1  UNL11       0.4829
     41 H          -5.7478    3.0855    0.1162 H       1  UNL11       0.0627
     42 H          -6.2285    0.7913   -0.7730 H       1  UNL11       0.0618
     43 H          -4.3626   -0.7530   -1.2774 H       1  UNL11       0.0618
     44 H          -2.1110    0.0130   -0.8907 H       1  UNL11       0.0624
@<TRIPOS>BOND
     1     1     2    2
     2     2     3   am
     3     2    17    1
     4     3     4    1
     5     3    28    1
     6     4     5    1
     7     4    11    1
     8     4    29    1
     9     5     6   ar
    10     6     7   ar
    11     6    30    1
    12     7     8   ar
    13     7    31    1
    14     8     9   ar
    15     8    32    1
    16     9    10   ar
    17     9    33    1
    18    10     5   ar
    19    10    34    1
    20    11    12   ar
    21    12    13   ar
    22    12    35    1
    23    13    14   ar
    24    13    36    1
    25    14    15   ar
    26    14    37    1
    27    15    16   ar
    28    15    38    1
    29    16    11   ar
    30    16    39    1
    31    17    18    2
    32    18    19    1
    33    19    20   am
    34    19    40    1
    35    20    21    2
    36    20    22    1
    37    22    23   ar
    38    23    24   ar
    39    23    41    1
    40    24    25   ar
    41    24    42    1
    42    25    26   ar
    43    25    43    1
    44    26    27   ar
    45    26    44    1
    46    27    17    1
    47    27    22   ar
@<TRIPOS>MOLECULE
*****
 44 47 0 0 0
SMALL
GASTEIGER

@<TRIPOS>ATOM
      1 O           1.2074    1.0334   -1.5565 O.2     1  UNL11      -0.2683
      2 C           0.1338    0.4333   -1.4692 C.2     1  UNL11       0.2695
      3 N          -0.2519    0.1207   -0.1042 N.am    1  UNL11      -0.2991
      4 C          -1.4410   -0.5803    0.2381 C.3     1  UNL11       0.0740
      5 C          -2.3062    0.2573    1.1086 C.ar    1  UNL11      -0.0228
      6 C          -3.6652    0.0837    1.0351 C.ar    1  UNL11      -0.0565
      7 C          -4.4994    0.8534    1.8405 C.ar    1  UNL11      -0.0614
      8 C          -3.9605    1.7733    2.6955 C.ar    1  UNL11      -0.0617
      9 C          -2.5878    1.9184    2.7403 C.ar    1  UNL11      -0.0614
     10 C          -1.7347    1.1627    1.9472 C.ar    1  UNL11      -0.0565
     11 C          -2.2264   -1.0390   -0.9071 C.ar    1  UNL11      -0.0228
     12 C          -3.5219   -0.6357   -1.1203 C.ar    1  UNL11      -0.0565
     13 C          -4.2240   -1.1128   -2.2341 C.ar    1  UNL11      -0.0614
     14 C          -3.6054   -1.9846   -3.1070 C.ar    1  UNL11      -0.0617
     15 C          -2.3053   -2.4043   -2.9144 C.ar    1  UNL11      -0.0614
     16 C          -1.6552   -1.9069   -1.8034 C.ar    1  UNL11      -0.0565
     17 C          -0.7132    0.0443   -2.5586 C.2     1  UNL11       0.1988
     18 N          -2.0667   -0.0237   -2.3518 N.2     1  UNL11       0.0021
     19 N          -2.9268   -0.3629   -3.2623 N.am    1  UNL11      -0.0351
     20 C          -2.5305   -0.6771   -4.4987 C.2     1  UNL11       0.4383
     21 O          -3.3238   -1.0089   -5.4050 O.2     1  UNL11      -0.2116
     22 C          -1.1872   -0.6332   -4.7870 C.ar    1  UNL11       0.1009
     23 C          -0.7110   -0.9416   -6.0297 C.ar    1  UNL11      -0.0441
     24 C           0.6285   -0.9070   -6.3498 C.ar    1  UNL11      -0.0608
     25 C           1.5506   -0.5503   -5.3980 C.ar    1  UNL11      -0.0611
     26 C           1.0678   -0.2319   -4.1182 C.ar    1  UNL11      -0.0513
     27 C          -0.2689   -0.2679   -3.8039 C.ar    1  UNL11       0.0282
     28 H           0.3946    0.4390    0.6335 H       1  UNL11       0.1500
     29 H          -1.0950   -1.4997    0.8099 H       1  UNL11       0.0599
     30 H          -4.1393   -0.6269    0.3767 H       1  UNL11       0.0621
     31 H          -5.5802    0.7456    1.8115 H       1  UNL11       0.0618
     32 H          -4.5872    2.3858    3.3337 H       1  UNL11       0.0618
     33 H          -2.1604    2.6431    3.4136 H       1  UNL11       0.0618
     34 H          -0.6629    1.3118    2.0169 H       1  UNL11       0.0621
     35 H          -4.0333    0.0421   -0.4626 H       1  UNL11       0.0621
     36 H          -5.2542   -0.8040   -2.4206 H       1  UNL11       0.0618
     37 H          -4.1067   -2.3870   -3.9907 H       1  UNL11       0.0618
     38 H          -1.8355   -3.0892   -3.6100 H       1  UNL11       0.0618
     39 H          -0.6201   -2.2562   -1.6719 H       1  UNL11       0.0621
     40 H          -3.9732   -0.4134   -3.0951 H       1  UNL11       0.4829
     41 H          -1.4556   -1.2246   -6.7802 H       1  UNL11       0.0627
     42 H           0.9899   -1.1508   -7.3271 H       1  UNL11       0.0618
     43 H           2.6250   -0.5032   -5.5870 H       1  UNL11       0.0618
     44 H           1.7979    0.0432   -3.3908 H       1  UNL11       0.0624
@<TRIPOS>BOND
     1     1     2    2
     2     2     3   am
     3     2    17    1
     4     3     4    1
     5     3    28    1
     6     4     5    1
     7     4    11    1
     8     4    29    1
     9     5     6   ar
    10     6     7   ar
    11     6    30    1
    12     7     8   ar
    13     7    31    1
    14     8     9   ar
    15     8    32    1
    16     9    10   ar
    17     9    33    1
    18    10     5   ar
    19    10    34    1
    20    11    12   ar
    21    12    13   ar
    22    12    35    1
    23    13    14   ar
    24    13    36    1
    25    14    15   ar
    26    14    37    1
    27    15    16   ar
    28    15    38    1
    29    16    11   ar
    30    16    39    1
    31    17    18    2
    32    18    19    1
    33    19    20   am
    34    19    40    1
    35    20    21    2
    36    20    22    1
    37    22    23   ar
    38    23    24   ar
    39    23    41    1
    40    24    25   ar
    41    24    42    1
    42    25    26   ar
    43    25    43    1
    44    26    27   ar
    45    26    44    1
    46    27    17    1
    47    27    22   ar
@<TRIPOS>MOLECULE
*****
 44 47 0 0 0
SMALL
GASTEIGER

@<TRIPOS>ATOM
      1 O           0.9920    1.4711   -1.4084 O.2     1  UNL11      -0.2683
      2 C          -0.1242    0.9630   -1.2806 C.2     1  UNL11       0.2695
      3 N          -0.2519    0.1207   -0.1042 N.am    1  UNL11      -0.2991
      4 C          -1.4410   -0.5803    0.2381 C.3     1  UNL11       0.0740
      5 C          -2.3062    0.2573    1.1086 C.ar    1  UNL11      -0.0228
      6 C          -1.8695    1.5141    1.4437 C.ar    1  UNL11      -0.0565
      7 C          -2.6605    2.3210    2.2561 C.ar    1  UNL11      -0.0614
      8 C          -3.8621    1.8571    2.7126 C.ar    1  UNL11      -0.0617
      9 C          -4.2667    0.5864    2.3533 C.ar    1  UNL11      -0.0614
     10 C          -3.4957   -0.2375    1.5442 C.ar    1  UNL11      -0.0565
     11 C          -2.2264   -1.0390   -0.9071 C.ar    1  UNL11      -0.0228
     12 C          -3.5219   -0.6357   -1.1203 C.ar    1  UNL11      -0.0565
     13 C          -4.2240   -1.1128   -2.2341 C.ar    1  UNL11      -0.0614
     14 C          -3.6054   -1.9846   -3.1070 C.ar    1  UNL11      -0.0617
     15 C          -2.3053   -2.4043   -2.9144 C.ar    1  UNL11      -0.0614
     16 C          -1.6552   -1.9069   -1.8034 C.ar    1  UNL11      -0.0565
     17 C          -1.2420    1.1352   -2.1617 C.2     1  UNL11       0.1988
     18 N          -2.1463    0.1129   -2.2895 N.2     1  UNL11       0.0021
     19 N          -3.1930    0.1573   -3.0554 N.am    1  UNL11      -0.0351
     20 C          -3.4606    1.2400   -3.7908 C.2     1  UNL11       0.4383
     21 O          -4.4560    1.3252   -4.5409 O.2     1  UNL11      -0.2116
     22 C          -2.6007    2.3099   -3.7185 C.ar    1  UNL11       0.1009
     23 C          -2.8124    3.4490   -4.4422 C.ar    1  UNL11      -0.0441
     24 C          -1.9696    4.5376   -4.3915 C.ar    1  UNL11      -0.0608
     25 C          -0.8587    4.5061   -3.5864 C.ar    1  UNL11      -0.0611
     26 C          -0.6351    3.3381   -2.8394 C.ar    1  UNL11      -0.0513
     27 C          -1.4783    2.2551   -2.8934 C.ar    1  UNL11       0.0282
     28 H           0.5847    0.0488    0.4946 H       1  UNL11       0.1500
     29 H          -1.0950   -1.4997    0.8099 H       1  UNL11       0.0599
     30 H          -0.9296    1.9255    1.1108 H       1  UNL11       0.0621
     31 H          -2.3498    3.3218    2.5435 H       1  UNL11       0.0618
     32 H          -4.4978    2.4647    3.3467 H       1  UNL11       0.0618
     33 H          -5.2138    0.2184    2.7119 H       1  UNL11       0.0618
     34 H          -3.8548   -1.2282    1.2883 H       1  UNL11       0.0621
     35 H          -4.0333    0.0421   -0.4626 H       1  UNL11       0.0621
     36 H          -5.2542   -0.8040   -2.4206 H       1  UNL11       0.0618
     37 H          -4.1067   -2.3870   -3.9907 H       1  UNL11       0.0618
     38 H          -1.8355   -3.0892   -3.6100 H       1  UNL11       0.0618
     39 H          -0.6201   -2.2562   -1.6719 H       1  UNL11       0.0621
     40 H          -3.8888   -0.6380   -3.1495 H       1  UNL11       0.4829
     41 H          -3.7012    3.4623   -5.0805 H       1  UNL11       0.0627
     42 H          -2.1457    5.4249   -4.9633 H       1  UNL11       0.0618
     43 H          -0.1521    5.3342   -3.5011 H       1  UNL11       0.0618
     44 H           0.2326    3.3307   -2.2191 H       1  UNL11       0.0624
@<TRIPOS>BOND
     1     1     2    2
     2     2     3   am
     3     2    17    1
     4     3     4    1
     5     3    28    1
     6     4     5    1
     7     4    11    1
     8     4    29    1
     9     5     6   ar
    10     6     7   ar
    11     6    30    1
    12     7     8   ar
    13     7    31    1
    14     8     9   ar
    15     8    32    1
    16     9    10   ar
    17     9    33    1
    18    10     5   ar
    19    10    34    1
    20    11    12   ar
    21    12    13   ar
    22    12    35    1
    23    13    14   ar
    24    13    36    1
    25    14    15   ar
    26    14    37    1
    27    15    16   ar
    28    15    38    1
    29    16    11   ar
    30    16    39    1
    31    17    18    2
    32    18    19    1
    33    19    20   am
    34    19    40    1
    35    20    21    2
    36    20    22    1
    37    22    23   ar
    38    23    24   ar
    39    23    41    1
    40    24    25   ar
    41    24    42    1
    42    25    26   ar
    43    25    43    1
    44    26    27   ar
    45    26    44    1
    46    27    17    1
    47    27    22   ar
@<TRIPOS>MOLECULE
*****
 44 47 0 0 0
SMALL
GASTEIGER

@<TRIPOS>ATOM
      1 O           1.4829    0.6173   -1.4517 O.2     1  UNL11      -0.2683
      2 C           0.4670   -0.0743   -1.3512 C.2     1  UNL11       0.2695
      3 N          -0.2519    0.1207   -0.1042 N.am    1  UNL11      -0.2991
      4 C          -1.4410   -0.5803    0.2381 C.3     1  UNL11       0.0740
      5 C          -2.3062    0.2573    1.1086 C.ar    1  UNL11      -0.0228
      6 C          -1.7054    1.1745    1.9334 C.ar    1  UNL11      -0.0565
      7 C          -2.4917    1.9736    2.7581 C.ar    1  UNL11      -0.0614
      8 C          -3.8515    1.8393    2.7403 C.ar    1  UNL11      -0.0617
      9 C          -4.4185    0.9047    1.8961 C.ar    1  UNL11      -0.0614
     10 C          -3.6559    0.0959    1.0643 C.ar    1  UNL11      -0.0565
     11 C          -2.2264   -1.0390   -0.9071 C.ar    1  UNL11      -0.0228
     12 C          -2.9989   -2.1738   -0.8629 C.ar    1  UNL11      -0.0565
     13 C          -3.7262   -2.5639   -1.9943 C.ar    1  UNL11      -0.0614
     14 C          -3.6587   -1.8026   -3.1433 C.ar    1  UNL11      -0.0617
     15 C          -2.8901   -0.6589   -3.2125 C.ar    1  UNL11      -0.0614
     16 C          -2.1920   -0.3156   -2.0726 C.ar    1  UNL11      -0.0565
     17 C          -0.0269   -1.0050   -2.3235 C.2     1  UNL11       0.1988
     18 N          -0.7260   -2.1025   -1.8923 N.2     1  UNL11       0.0021
     19 N          -1.2187   -3.0084   -2.6801 N.am    1  UNL11      -0.0351
     20 C          -1.0686   -2.9221   -4.0047 C.2     1  UNL11       0.4383
     21 O          -1.5260   -3.7709   -4.7990 O.2     1  UNL11      -0.2116
     22 C          -0.3786   -1.8494   -4.5173 C.ar    1  UNL11       0.1009
     23 C          -0.1871   -1.6971   -5.8612 C.ar    1  UNL11      -0.0441
     24 C           0.4993   -0.6339   -6.4055 C.ar    1  UNL11      -0.0608
     25 C           1.0263    0.3323   -5.5857 C.ar    1  UNL11      -0.0611
     26 C           0.8330    0.1820   -4.2029 C.ar    1  UNL11      -0.0513
     27 C           0.1478   -0.8801   -3.6649 C.ar    1  UNL11       0.0282
     28 H           0.1491    0.8130    0.5465 H       1  UNL11       0.1500
     29 H          -1.0950   -1.4997    0.8099 H       1  UNL11       0.0599
     30 H          -0.6377    1.3179    1.9856 H       1  UNL11       0.0621
     31 H          -2.0538    2.7113    3.4250 H       1  UNL11       0.0618
     32 H          -4.4873    2.4490    3.3722 H       1  UNL11       0.0618
     33 H          -5.4905    0.7969    1.8803 H       1  UNL11       0.0618
     34 H          -4.1456   -0.6242    0.4182 H       1  UNL11       0.0621
     35 H          -3.0755   -2.7886    0.0143 H       1  UNL11       0.0621
     36 H          -4.3457   -3.4625   -1.9789 H       1  UNL11       0.0618
     37 H          -4.2054   -2.0612   -4.0535 H       1  UNL11       0.0618
     38 H          -2.8489   -0.0734   -4.1230 H       1  UNL11       0.0618
     39 H          -1.5868    0.5998   -2.1529 H       1  UNL11       0.0621
     40 H          -1.7587   -3.8555   -2.3393 H       1  UNL11       0.4829
     41 H          -0.6118   -2.4737   -6.5048 H       1  UNL11       0.0627
     42 H           0.6431   -0.5251   -7.4604 H       1  UNL11       0.0618
     43 H           1.5800    1.1988   -5.9533 H       1  UNL11       0.0618
     44 H           1.2490    0.9418   -3.5805 H       1  UNL11       0.0624
@<TRIPOS>BOND
     1     1     2    2
     2     2     3   am
     3     2    17    1
     4     3     4    1
     5     3    28    1
     6     4     5    1
     7     4    11    1
     8     4    29    1
     9     5     6   ar
    10     6     7   ar
    11     6    30    1
    12     7     8   ar
    13     7    31    1
    14     8     9   ar
    15     8    32    1
    16     9    10   ar
    17     9    33    1
    18    10     5   ar
    19    10    34    1
    20    11    12   ar
    21    12    13   ar
    22    12    35    1
    23    13    14   ar
    24    13    36    1
    25    14    15   ar
    26    14    37    1
    27    15    16   ar
    28    15    38    1
    29    16    11   ar
    30    16    39    1
    31    17    18    2
    32    18    19    1
    33    19    20   am
    34    19    40    1
    35    20    21    2
    36    20    22    1
    37    22    23   ar
    38    23    24   ar
    39    23    41    1
    40    24    25   ar
    41    24    42    1
    42    25    26   ar
    43    25    43    1
    44    26    27   ar
    45    26    44    1
    46    27    17    1
    47    27    22   ar
@<TRIPOS>MOLECULE
*****
 44 47 0 0 0
SMALL
GASTEIGER

@<TRIPOS>ATOM
      1 O           1.4829    0.6173   -1.4517 O.2     1  UNL11      -0.2683
      2 C           0.4670   -0.0743   -1.3512 C.2     1  UNL11       0.2695
      3 N          -0.2519    0.1207   -0.1042 N.am    1  UNL11      -0.2991
      4 C          -1.4410   -0.5803    0.2381 C.3     1  UNL11       0.0740
      5 C          -2.3062    0.2573    1.1086 C.ar    1  UNL11      -0.0228
      6 C          -1.7054    1.1745    1.9334 C.ar    1  UNL11      -0.0565
      7 C          -2.4917    1.9736    2.7581 C.ar    1  UNL11      -0.0614
      8 C          -3.8515    1.8393    2.7403 C.ar    1  UNL11      -0.0617
      9 C          -4.4185    0.9047    1.8961 C.ar    1  UNL11      -0.0614
     10 C          -3.6559    0.0959    1.0643 C.ar    1  UNL11      -0.0565
     11 C          -2.2264   -1.0390   -0.9071 C.ar    1  UNL11      -0.0228
     12 C          -2.7284   -0.1747   -1.8491 C.ar    1  UNL11      -0.0565
     13 C          -3.4768   -0.6745   -2.9221 C.ar    1  UNL11      -0.0614
     14 C          -3.7021   -2.0323   -3.0215 C.ar    1  UNL11      -0.0617
     15 C          -3.2085   -2.9205   -2.0882 C.ar    1  UNL11      -0.0614
     16 C          -2.4775   -2.3804   -1.0498 C.ar    1  UNL11      -0.0565
     17 C          -0.0269   -1.0050   -2.3235 C.2     1  UNL11       0.1988
     18 N          -1.3785   -1.2180   -2.4073 N.2     1  UNL11       0.0021
     19 N          -1.9367   -2.0349   -3.2471 N.am    1  UNL11      -0.0351
     20 C          -1.2015   -2.7416   -4.1099 C.2     1  UNL11       0.4383
     21 O          -1.6972   -3.5385   -4.9346 O.2     1  UNL11      -0.2116
     22 C           0.1639   -2.5844   -4.0894 C.ar    1  UNL11       0.1009
     23 C           0.9771   -3.2745   -4.9429 C.ar    1  UNL11      -0.0441
     24 C           2.3480   -3.1390   -4.9470 C.ar    1  UNL11      -0.0608
     25 C           2.9534   -2.2792   -4.0652 C.ar    1  UNL11      -0.0611
     26 C           2.1233   -1.5664   -3.1849 C.ar    1  UNL11      -0.0513
     27 C           0.7566   -1.7050   -3.1845 C.ar    1  UNL11       0.0282
     28 H           0.1491    0.8130    0.5465 H       1  UNL11       0.1500
     29 H          -1.0950   -1.4997    0.8099 H       1  UNL11       0.0599
     30 H          -0.6377    1.3179    1.9856 H       1  UNL11       0.0621
     31 H          -2.0538    2.7113    3.4250 H       1  UNL11       0.0618
     32 H          -4.4873    2.4490    3.3722 H       1  UNL11       0.0618
     33 H          -5.4905    0.7969    1.8803 H       1  UNL11       0.0618
     34 H          -4.1456   -0.6242    0.4182 H       1  UNL11       0.0621
     35 H          -2.5714    0.8868   -1.8035 H       1  UNL11       0.0621
     36 H          -3.8843   -0.0037   -3.6808 H       1  UNL11       0.0618
     37 H          -4.2787   -2.4750   -3.8375 H       1  UNL11       0.0618
     38 H          -3.3952   -3.9835   -2.1821 H       1  UNL11       0.0618
     39 H          -2.0949   -3.1087   -0.3190 H       1  UNL11       0.0621
     40 H          -2.9838   -2.1949   -3.3063 H       1  UNL11       0.4829
     41 H           0.4830   -3.9570   -5.6413 H       1  UNL11       0.0627
     42 H           2.9752   -3.6851   -5.6206 H       1  UNL11       0.0618
     43 H           4.0336   -2.1261   -4.0174 H       1  UNL11       0.0618
     44 H           2.6101   -0.9027   -2.5065 H       1  UNL11       0.0624
@<TRIPOS>BOND
     1     1     2    2
     2     2     3   am
     3     2    17    1
     4     3     4    1
     5     3    28    1
     6     4     5    1
     7     4    11    1
     8     4    29    1
     9     5     6   ar
    10     6     7   ar
    11     6    30    1
    12     7     8   ar
    13     7    31    1
    14     8     9   ar
    15     8    32    1
    16     9    10   ar
    17     9    33    1
    18    10     5   ar
    19    10    34    1
    20    11    12   ar
    21    12    13   ar
    22    12    35    1
    23    13    14   ar
    24    13    36    1
    25    14    15   ar
    26    14    37    1
    27    15    16   ar
    28    15    38    1
    29    16    11   ar
    30    16    39    1
    31    17    18    2
    32    18    19    1
    33    19    20   am
    34    19    40    1
    35    20    21    2
    36    20    22    1
    37    22    23   ar
    38    23    24   ar
    39    23    41    1
    40    24    25   ar
    41    24    42    1
    42    25    26   ar
    43    25    43    1
    44    26    27   ar
    45    26    44    1
    46    27    17    1
    47    27    22   ar
@<TRIPOS>MOLECULE
*****
 44 47 0 0 0
SMALL
GASTEIGER

@<TRIPOS>ATOM
      1 O           1.8854    0.7515    0.2214 O.2     1  UNL11      -0.2683
      2 C           0.9713    0.0604    0.6767 C.2     1  UNL11       0.2695
      3 N          -0.2519    0.1207   -0.1042 N.am    1  UNL11      -0.2991
      4 C          -1.4410   -0.5803    0.2381 C.3     1  UNL11       0.0740
      5 C          -2.3062    0.2573    1.1086 C.ar    1  UNL11      -0.0228
      6 C          -3.2373    1.0694    0.5120 C.ar    1  UNL11      -0.0565
      7 C          -4.0624    1.8633    1.3032 C.ar    1  UNL11      -0.0614
      8 C          -3.9393    1.8281    2.6638 C.ar    1  UNL11      -0.0617
      9 C          -2.9900    0.9977    3.2265 C.ar    1  UNL11      -0.0614
     10 C          -2.1554    0.1965    2.4588 C.ar    1  UNL11      -0.0565
     11 C          -2.2264   -1.0390   -0.9071 C.ar    1  UNL11      -0.0228
     12 C          -3.5219   -0.6357   -1.1203 C.ar    1  UNL11      -0.0565
     13 C          -4.2240   -1.1128   -2.2341 C.ar    1  UNL11      -0.0614
     14 C          -3.6054   -1.9846   -3.1070 C.ar    1  UNL11      -0.0617
     15 C          -2.3053   -2.4043   -2.9144 C.ar    1  UNL11      -0.0614
     16 C          -1.6552   -1.9069   -1.8034 C.ar    1  UNL11      -0.0565
     17 C           1.0276   -0.7528    1.8561 C.2     1  UNL11       0.1988
     18 N           2.1933   -0.7927    2.5764 N.2     1  UNL11       0.0021
     19 N           2.3585   -1.4917    3.6571 N.am    1  UNL11      -0.0351
     20 C           1.3677   -2.2404    4.1492 C.2     1  UNL11       0.4383
     21 O           1.4834   -2.9282    5.1857 O.2     1  UNL11      -0.2116
     22 C           0.1648   -2.2545    3.4840 C.ar    1  UNL11       0.1009
     23 C          -0.8915   -2.9969    3.9301 C.ar    1  UNL11      -0.0441
     24 C          -2.1090   -3.0320    3.2863 C.ar    1  UNL11      -0.0608
     25 C          -2.2995   -2.2982    2.1423 C.ar    1  UNL11      -0.0611
     26 C          -1.2176   -1.5326    1.6781 C.ar    1  UNL11      -0.0513
     27 C          -0.0054   -1.5010    2.3236 C.ar    1  UNL11       0.0282
     28 H          -0.2224    0.7138   -0.9474 H       1  UNL11       0.1500
     29 H          -1.0950   -1.4997    0.8099 H       1  UNL11       0.0599
     30 H          -3.3728    1.1342   -0.5561 H       1  UNL11       0.0621
     31 H          -4.8117    2.5192    0.8687 H       1  UNL11       0.0618
     32 H          -4.5691    2.4361    3.3034 H       1  UNL11       0.0618
     33 H          -2.8910    0.9683    4.2990 H       1  UNL11       0.0618
     34 H          -1.4245   -0.4399    2.9454 H       1  UNL11       0.0621
     35 H          -4.0333    0.0421   -0.4626 H       1  UNL11       0.0621
     36 H          -5.2542   -0.8040   -2.4206 H       1  UNL11       0.0618
     37 H          -4.1067   -2.3870   -3.9907 H       1  UNL11       0.0618
     38 H          -1.8355   -3.0892   -3.6100 H       1  UNL11       0.0618
     39 H          -0.6201   -2.2562   -1.6719 H       1  UNL11       0.0621
     40 H           3.2639   -1.5179    4.2096 H       1  UNL11       0.4829
     41 H          -0.7277   -3.5777    4.8431 H       1  UNL11       0.0627
     42 H          -2.9297   -3.6175    3.6453 H       1  UNL11       0.0618
     43 H          -3.2387   -2.2825    1.5854 H       1  UNL11       0.0618
     44 H          -1.3829   -0.9686    0.7880 H       1  UNL11       0.0624
@<TRIPOS>BOND
     1     1     2    2
     2     2     3   am
     3     2    17    1
     4     3     4    1
     5     3    28    1
     6     4     5    1
     7     4    11    1
     8     4    29    1
     9     5     6   ar
    10     6     7   ar
    11     6    30    1
    12     7     8   ar
    13     7    31    1
    14     8     9   ar
    15     8    32    1
    16     9    10   ar
    17     9    33    1
    18    10     5   ar
    19    10    34    1
    20    11    12   ar
    21    12    13   ar
    22    12    35    1
    23    13    14   ar
    24    13    36    1
    25    14    15   ar
    26    14    37    1
    27    15    16   ar
    28    15    38    1
    29    16    11   ar
    30    16    39    1
    31    17    18    2
    32    18    19    1
    33    19    20   am
    34    19    40    1
    35    20    21    2
    36    20    22    1
    37    22    23   ar
    38    23    24   ar
    39    23    41    1
    40    24    25   ar
    41    24    42    1
    42    25    26   ar
    43    25    43    1
    44    26    27   ar
    45    26    44    1
    46    27    17    1
    47    27    22   ar
@<TRIPOS>MOLECULE
*****
 44 47 0 0 0
SMALL
GASTEIGER

@<TRIPOS>ATOM
      1 O           1.7463    0.3318   -1.1213 O.2     1  UNL11      -0.2683
      2 C           0.7883   -0.4270   -0.9573 C.2     1  UNL11       0.2695
      3 N          -0.2519    0.1207   -0.1042 N.am    1  UNL11      -0.2991
      4 C          -1.4410   -0.5803    0.2381 C.3     1  UNL11       0.0740
      5 C          -2.3062    0.2573    1.1086 C.ar    1  UNL11      -0.0228
      6 C          -3.2373    1.0694    0.5120 C.ar    1  UNL11      -0.0565
      7 C          -4.0624    1.8633    1.3032 C.ar    1  UNL11      -0.0614
      8 C          -3.9393    1.8281    2.6638 C.ar    1  UNL11      -0.0617
      9 C          -2.9900    0.9977    3.2265 C.ar    1  UNL11      -0.0614
     10 C          -2.1554    0.1965    2.4588 C.ar    1  UNL11      -0.0565
     11 C          -2.2264   -1.0390   -0.9071 C.ar    1  UNL11      -0.0228
     12 C          -3.5219   -0.6357   -1.1203 C.ar    1  UNL11      -0.0565
     13 C          -4.2240   -1.1128   -2.2341 C.ar    1  UNL11      -0.0614
     14 C          -3.6054   -1.9846   -3.1070 C.ar    1  UNL11      -0.0617
     15 C          -2.3053   -2.4043   -2.9144 C.ar    1  UNL11      -0.0614
     16 C          -1.6552   -1.9069   -1.8034 C.ar    1  UNL11      -0.0565
     17 C           0.6371   -1.7379   -1.5178 C.2     1  UNL11       0.1988
     18 N           1.6329   -2.2327   -2.3195 N.2     1  UNL11       0.0021
     19 N           1.6039   -3.4032   -2.8791 N.am    1  UNL11      -0.0351
     20 C           0.5652   -4.2242   -2.7010 C.2     1  UNL11       0.4383
     21 O           0.4962   -5.3583   -3.2204 O.2     1  UNL11      -0.2116
     22 C          -0.4759   -3.8013   -1.9094 C.ar    1  UNL11       0.1009
     23 C          -1.5694   -4.5882   -1.6836 C.ar    1  UNL11      -0.0441
     24 C          -2.6282   -4.1932   -0.8957 C.ar    1  UNL11      -0.0608
     25 C          -2.6125   -2.9584   -0.2969 C.ar    1  UNL11      -0.0611
     26 C          -1.4912   -2.1442   -0.5248 C.ar    1  UNL11      -0.0513
     27 C          -0.4378   -2.5426   -1.3114 C.ar    1  UNL11       0.0282
     28 H          -0.0876    1.0728    0.2564 H       1  UNL11       0.1500
     29 H          -1.0950   -1.4997    0.8099 H       1  UNL11       0.0599
     30 H          -3.3728    1.1342   -0.5561 H       1  UNL11       0.0621
     31 H          -4.8117    2.5192    0.8687 H       1  UNL11       0.0618
     32 H          -4.5691    2.4361    3.3034 H       1  UNL11       0.0618
     33 H          -2.8910    0.9683    4.2990 H       1  UNL11       0.0618
     34 H          -1.4245   -0.4399    2.9454 H       1  UNL11       0.0621
     35 H          -4.0333    0.0421   -0.4626 H       1  UNL11       0.0621
     36 H          -5.2542   -0.8040   -2.4206 H       1  UNL11       0.0618
     37 H          -4.1067   -2.3870   -3.9907 H       1  UNL11       0.0618
     38 H          -1.8355   -3.0892   -3.6100 H       1  UNL11       0.0618
     39 H          -0.6201   -2.2562   -1.6719 H       1  UNL11       0.0621
     40 H           2.3784   -3.7798   -3.4986 H       1  UNL11       0.4829
     41 H          -1.5706   -5.5704   -2.1662 H       1  UNL11       0.0627
     42 H          -3.4799   -4.8186   -0.7259 H       1  UNL11       0.0618
     43 H          -3.4187   -2.5860    0.3384 H       1  UNL11       0.0618
     44 H          -1.4953   -1.1882   -0.0519 H       1  UNL11       0.0624
@<TRIPOS>BOND
     1     1     2    2
     2     2     3   am
     3     2    17    1
     4     3     4    1
     5     3    28    1
     6     4     5    1
     7     4    11    1
     8     4    29    1
     9     5     6   ar
    10     6     7   ar
    11     6    30    1
    12     7     8   ar
    13     7    31    1
    14     8     9   ar
    15     8    32    1
    16     9    10   ar
    17     9    33    1
    18    10     5   ar
    19    10    34    1
    20    11    12   ar
    21    12    13   ar
    22    12    35    1
    23    13    14   ar
    24    13    36    1
    25    14    15   ar
    26    14    37    1
    27    15    16   ar
    28    15    38    1
    29    16    11   ar
    30    16    39    1
    31    17    18    2
    32    18    19    1
    33    19    20   am
    34    19    40    1
    35    20    21    2
    36    20    22    1
    37    22    23   ar
    38    23    24   ar
    39    23    41    1
    40    24    25   ar
    41    24    42    1
    42    25    26   ar
    43    25    43    1
    44    26    27   ar
    45    26    44    1
    46    27    17    1
    47    27    22   ar
@<TRIPOS>MOLECULE
*****
 44 47 0 0 0
SMALL
GASTEIGER

@<TRIPOS>ATOM
      1 O           0.9920    1.4711   -1.4084 O.2     1  UNL11      -0.2683
      2 C          -0.1242    0.9630   -1.2806 C.2     1  UNL11       0.2695
      3 N          -0.2519    0.1207   -0.1042 N.am    1  UNL11      -0.2991
      4 C          -1.4410   -0.5803    0.2381 C.3     1  UNL11       0.0740
      5 C          -2.3062    0.2573    1.1086 C.ar    1  UNL11      -0.0228
      6 C          -2.6186   -0.2117    2.3596 C.ar    1  UNL11      -0.0565
      7 C          -3.4256    0.5530    3.1968 C.ar    1  UNL11      -0.0614
      8 C          -3.8992    1.7611    2.7681 C.ar    1  UNL11      -0.0617
      9 C          -3.5625    2.1984    1.5021 C.ar    1  UNL11      -0.0614
     10 C          -2.7593    1.4542    0.6484 C.ar    1  UNL11      -0.0565
     11 C          -2.2264   -1.0390   -0.9071 C.ar    1  UNL11      -0.0228
     12 C          -2.9989   -2.1738   -0.8629 C.ar    1  UNL11      -0.0565
     13 C          -3.7262   -2.5639   -1.9943 C.ar    1  UNL11      -0.0614
     14 C          -3.6587   -1.8026   -3.1433 C.ar    1  UNL11      -0.0617
     15 C          -2.8901   -0.6589   -3.2125 C.ar    1  UNL11      -0.0614
     16 C          -2.1920   -0.3156   -2.0726 C.ar    1  UNL11      -0.0565
     17 C          -1.2420    1.1352   -2.1617 C.2     1  UNL11       0.1988
     18 N          -1.0053    1.3704   -3.4913 N.2     1  UNL11       0.0021
     19 N          -1.9371    1.5411   -4.3783 N.am    1  UNL11      -0.0351
     20 C          -3.2277    1.4963   -4.0363 C.2     1  UNL11       0.4383
     21 O          -4.1561    1.6551   -4.8569 O.2     1  UNL11      -0.2116
     22 C          -3.5488    1.2645   -2.7199 C.ar    1  UNL11       0.1009
     23 C          -4.8471    1.2055   -2.2992 C.ar    1  UNL11      -0.0441
     24 C          -5.2011    0.9750   -0.9880 C.ar    1  UNL11      -0.0608
     25 C          -4.2274    0.7925   -0.0381 C.ar    1  UNL11      -0.0611
     26 C          -2.8905    0.8518   -0.4638 C.ar    1  UNL11      -0.0513
     27 C          -2.5425    1.0820   -1.7726 C.ar    1  UNL11       0.0282
     28 H           0.5847    0.0488    0.4946 H       1  UNL11       0.1500
     29 H          -1.0950   -1.4997    0.8099 H       1  UNL11       0.0599
     30 H          -2.2716   -1.1578    2.7438 H       1  UNL11       0.0621
     31 H          -3.6952    0.2165    4.1942 H       1  UNL11       0.0618
     32 H          -4.5296    2.3767    3.3998 H       1  UNL11       0.0618
     33 H          -3.9348    3.1506    1.1617 H       1  UNL11       0.0618
     34 H          -2.5215    1.8386   -0.3372 H       1  UNL11       0.0621
     35 H          -3.0755   -2.7886    0.0143 H       1  UNL11       0.0621
     36 H          -4.3457   -3.4625   -1.9789 H       1  UNL11       0.0618
     37 H          -4.2054   -2.0612   -4.0535 H       1  UNL11       0.0618
     38 H          -2.8489   -0.0734   -4.1230 H       1  UNL11       0.0618
     39 H          -1.5868    0.5998   -2.1529 H       1  UNL11       0.0621
     40 H          -1.7466    1.7228   -5.4060 H       1  UNL11       0.4829
     41 H          -5.6145    1.3525   -3.0654 H       1  UNL11       0.0627
     42 H          -6.2220    0.9309   -0.6700 H       1  UNL11       0.0618
     43 H          -4.4411    0.6062    1.0164 H       1  UNL11       0.0618
     44 H          -2.1468    0.7078    0.2871 H       1  UNL11       0.0624
@<TRIPOS>BOND
     1     1     2    2
     2     2     3   am
     3     2    17    1
     4     3     4    1
     5     3    28    1
     6     4     5    1
     7     4    11    1
     8     4    29    1
     9     5     6   ar
    10     6     7   ar
    11     6    30    1
    12     7     8   ar
    13     7    31    1
    14     8     9   ar
    15     8    32    1
    16     9    10   ar
    17     9    33    1
    18    10     5   ar
    19    10    34    1
    20    11    12   ar
    21    12    13   ar
    22    12    35    1
    23    13    14   ar
    24    13    36    1
    25    14    15   ar
    26    14    37    1
    27    15    16   ar
    28    15    38    1
    29    16    11   ar
    30    16    39    1
    31    17    18    2
    32    18    19    1
    33    19    20   am
    34    19    40    1
    35    20    21    2
    36    20    22    1
    37    22    23   ar
    38    23    24   ar
    39    23    41    1
    40    24    25   ar
    41    24    42    1
    42    25    26   ar
    43    25    43    1
    44    26    27   ar
    45    26    44    1
    46    27    17    1
    47    27    22   ar
@<TRIPOS>MOLECULE
*****
 44 47 0 0 0
SMALL
GASTEIGER

@<TRIPOS>ATOM
      1 O           1.8854    0.7515    0.2214 O.2     1  UNL11      -0.2683
      2 C           0.9713    0.0604    0.6767 C.2     1  UNL11       0.2695
      3 N          -0.2519    0.1207   -0.1042 N.am    1  UNL11      -0.2991
      4 C          -1.4410   -0.5803    0.2381 C.3     1  UNL11       0.0740
      5 C          -2.3062    0.2573    1.1086 C.ar    1  UNL11      -0.0228
      6 C          -2.2470    1.6206    0.9659 C.ar    1  UNL11      -0.0565
      7 C          -3.0478    2.4293    1.7669 C.ar    1  UNL11      -0.0614
      8 C          -3.8842    1.8615    2.6864 C.ar    1  UNL11      -0.0617
      9 C          -3.9151    0.4854    2.7999 C.ar    1  UNL11      -0.0614
     10 C          -3.1262   -0.3426    2.0127 C.ar    1  UNL11      -0.0565
     11 C          -2.2264   -1.0390   -0.9071 C.ar    1  UNL11      -0.0228
     12 C          -1.7264   -1.9152   -1.8392 C.ar    1  UNL11      -0.0565
     13 C          -2.5266   -2.3150   -2.9167 C.ar    1  UNL11      -0.0614
     14 C          -3.8111   -1.8234   -3.0305 C.ar    1  UNL11      -0.0617
     15 C          -4.3359   -0.9425   -2.1073 C.ar    1  UNL11      -0.0614
     16 C          -3.5094   -0.5783   -1.0639 C.ar    1  UNL11      -0.0565
     17 C           1.0276   -0.7528    1.8561 C.2     1  UNL11       0.1988
     18 N           0.2598   -1.8870    1.9140 N.2     1  UNL11       0.0021
     19 N           0.2308   -2.6963    2.9280 N.am    1  UNL11      -0.0351
     20 C           0.9734   -2.4640    4.0138 C.2     1  UNL11       0.4383
     21 O           0.9759   -3.2161    5.0114 O.2     1  UNL11      -0.2116
     22 C           1.7720   -1.3454    4.0342 C.ar    1  UNL11       0.1009
     23 C           2.5574   -1.0458    5.1110 C.ar    1  UNL11      -0.0441
     24 C           3.3681    0.0669    5.1618 C.ar    1  UNL11      -0.0608
     25 C           3.4099    0.9324    4.0976 C.ar    1  UNL11      -0.0611
     26 C           2.6050    0.6303    2.9872 C.ar    1  UNL11      -0.0513
     27 C           1.7981   -0.4805    2.9413 C.ar    1  UNL11       0.0282
     28 H          -0.2224    0.7138   -0.9474 H       1  UNL11       0.1500
     29 H          -1.0950   -1.4997    0.8099 H       1  UNL11       0.0599
     30 H          -1.6033    2.1170    0.2569 H       1  UNL11       0.0621
     31 H          -3.0297    3.5126    1.6840 H       1  UNL11       0.0618
     32 H          -4.5186    2.4680    3.3228 H       1  UNL11       0.0618
     33 H          -4.5738    0.0353    3.5242 H       1  UNL11       0.0618
     34 H          -3.1844   -1.4182    2.1375 H       1  UNL11       0.0621
     35 H          -0.7326   -2.3181   -1.7809 H       1  UNL11       0.0621
     36 H          -2.1473   -3.0104   -3.6677 H       1  UNL11       0.0618
     37 H          -4.4773   -2.1022   -3.8506 H       1  UNL11       0.0618
     38 H          -5.3465   -0.5667   -2.2125 H       1  UNL11       0.0618
     39 H          -3.9505    0.1247   -0.3414 H       1  UNL11       0.0621
     40 H          -0.3661   -3.5726    2.9659 H       1  UNL11       0.4829
     41 H           2.5156   -1.7431    5.9534 H       1  UNL11       0.0627
     42 H           3.9793    0.2915    6.0111 H       1  UNL11       0.0618
     43 H           4.0304    1.8307    4.0748 H       1  UNL11       0.0618
     44 H           2.6497    1.3133    2.1692 H       1  UNL11       0.0624
@<TRIPOS>BOND
     1     1     2    2
     2     2     3   am
     3     2    17    1
     4     3     4    1
     5     3    28    1
     6     4     5    1
     7     4    11    1
     8     4    29    1
     9     5     6   ar
    10     6     7   ar
    11     6    30    1
    12     7     8   ar
    13     7    31    1
    14     8     9   ar
    15     8    32    1
    16     9    10   ar
    17     9    33    1
    18    10     5   ar
    19    10    34    1
    20    11    12   ar
    21    12    13   ar
    22    12    35    1
    23    13    14   ar
    24    13    36    1
    25    14    15   ar
    26    14    37    1
    27    15    16   ar
    28    15    38    1
    29    16    11   ar
    30    16    39    1
    31    17    18    2
    32    18    19    1
    33    19    20   am
    34    19    40    1
    35    20    21    2
    36    20    22    1
    37    22    23   ar
    38    23    24   ar
    39    23    41    1
    40    24    25   ar
    41    24    42    1
    42    25    26   ar
    43    25    43    1
    44    26    27   ar
    45    26    44    1
    46    27    17    1
    47    27    22   ar
@<TRIPOS>MOLECULE
*****
 44 47 0 0 0
SMALL
GASTEIGER

@<TRIPOS>ATOM
      1 O          -0.2336    1.3092    1.8087 O.2     1  UNL11      -0.2683
      2 C           0.3674    1.1201    0.7487 C.2     1  UNL11       0.2695
      3 N          -0.2519    0.1207   -0.1042 N.am    1  UNL11      -0.2991
      4 C          -1.4410   -0.5803    0.2381 C.3     1  UNL11       0.0740
      5 C          -2.3062    0.2573    1.1086 C.ar    1  UNL11      -0.0228
      6 C          -3.1120   -0.3720    2.0235 C.ar    1  UNL11      -0.0565
      7 C          -3.9313    0.3879    2.8531 C.ar    1  UNL11      -0.0614
      8 C          -3.9271    1.7506    2.7505 C.ar    1  UNL11      -0.0617
      9 C          -3.1020    2.3468    1.8171 C.ar    1  UNL11      -0.0614
     10 C          -2.2758    1.6107    0.9783 C.ar    1  UNL11      -0.0565
     11 C          -2.2264   -1.0390   -0.9071 C.ar    1  UNL11      -0.0228
     12 C          -1.8403   -0.8076   -2.2047 C.ar    1  UNL11      -0.0565
     13 C          -2.6372   -1.2691   -3.2598 C.ar    1  UNL11      -0.0614
     14 C          -3.8039   -1.9526   -2.9837 C.ar    1  UNL11      -0.0617
     15 C          -4.2129   -2.1974   -1.6890 C.ar    1  UNL11      -0.0614
     16 C          -3.3947   -1.7232   -0.6840 C.ar    1  UNL11      -0.0565
     17 C           1.5668    1.7799    0.3227 C.2     1  UNL11       0.1988
     18 N           2.0988    1.4597   -0.8995 N.2     1  UNL11       0.0021
     19 N           3.1775    1.9917   -1.3867 N.am    1  UNL11      -0.0351
     20 C           3.8576    2.9154   -0.7020 C.2     1  UNL11       0.4383
     21 O           4.8998    3.4529   -1.1329 O.2     1  UNL11      -0.2116
     22 C           3.3886    3.2918    0.5341 C.ar    1  UNL11       0.1009
     23 C           4.0330    4.2303    1.2891 C.ar    1  UNL11      -0.0441
     24 C           3.5885    4.6286    2.5307 C.ar    1  UNL11      -0.0608
     25 C           2.4493    4.0755    3.0597 C.ar    1  UNL11      -0.0611
     26 C           1.7818    3.1101    2.2887 C.ar    1  UNL11      -0.0513
     27 C           2.2291    2.7160    1.0511 C.ar    1  UNL11       0.0282
     28 H           0.2225   -0.0669   -1.0005 H       1  UNL11       0.1500
     29 H          -1.0950   -1.4997    0.8099 H       1  UNL11       0.0599
     30 H          -3.1528   -1.4433    2.1426 H       1  UNL11       0.0621
     31 H          -4.5832   -0.0730    3.5901 H       1  UNL11       0.0618
     32 H          -4.5553    2.3663    3.3842 H       1  UNL11       0.0618
     33 H          -3.0969    3.4211    1.7342 H       1  UNL11       0.0618
     34 H          -1.6448    2.1229    0.2605 H       1  UNL11       0.0621
     35 H          -0.9387   -0.2807   -2.4556 H       1  UNL11       0.0621
     36 H          -2.3474   -1.0951   -4.2977 H       1  UNL11       0.0618
     37 H          -4.4621   -2.3341   -3.7682 H       1  UNL11       0.0618
     38 H          -5.1320   -2.7357   -1.4908 H       1  UNL11       0.0618
     39 H          -3.7423   -1.9309    0.3392 H       1  UNL11       0.0621
     40 H           3.5836    1.7389   -2.3336 H       1  UNL11       0.4829
     41 H           4.9400    4.6641    0.8569 H       1  UNL11       0.0627
     42 H           4.1019    5.3651    3.1133 H       1  UNL11       0.0618
     43 H           2.0446    4.3473    4.0368 H       1  UNL11       0.0618
     44 H           0.8985    2.6907    2.7147 H       1  UNL11       0.0624
@<TRIPOS>BOND
     1     1     2    2
     2     2     3   am
     3     2    17    1
     4     3     4    1
     5     3    28    1
     6     4     5    1
     7     4    11    1
     8     4    29    1
     9     5     6   ar
    10     6     7   ar
    11     6    30    1
    12     7     8   ar
    13     7    31    1
    14     8     9   ar
    15     8    32    1
    16     9    10   ar
    17     9    33    1
    18    10     5   ar
    19    10    34    1
    20    11    12   ar
    21    12    13   ar
    22    12    35    1
    23    13    14   ar
    24    13    36    1
    25    14    15   ar
    26    14    37    1
    27    15    16   ar
    28    15    38    1
    29    16    11   ar
    30    16    39    1
    31    17    18    2
    32    18    19    1
    33    19    20   am
    34    19    40    1
    35    20    21    2
    36    20    22    1
    37    22    23   ar
    38    23    24   ar
    39    23    41    1
    40    24    25   ar
    41    24    42    1
    42    25    26   ar
    43    25    43    1
    44    26    27   ar
    45    26    44    1
    46    27    17    1
    47    27    22   ar
@<TRIPOS>MOLECULE
*****
 44 47 0 0 0
SMALL
GASTEIGER

@<TRIPOS>ATOM
      1 O           1.2074    1.0334   -1.5565 O.2     1  UNL11      -0.2683
      2 C           0.1338    0.4333   -1.4692 C.2     1  UNL11       0.2695
      3 N          -0.2519    0.1207   -0.1042 N.am    1  UNL11      -0.2991
      4 C          -1.4410   -0.5803    0.2381 C.3     1  UNL11       0.0740
      5 C          -2.3062    0.2573    1.1086 C.ar    1  UNL11      -0.0228
      6 C          -1.7054    1.1745    1.9334 C.ar    1  UNL11      -0.0565
      7 C          -2.4917    1.9736    2.7581 C.ar    1  UNL11      -0.0614
      8 C          -3.8515    1.8393    2.7403 C.ar    1  UNL11      -0.0617
      9 C          -4.4185    0.9047    1.8961 C.ar    1  UNL11      -0.0614
     10 C          -3.6559    0.0959    1.0643 C.ar    1  UNL11      -0.0565
     11 C          -2.2264   -1.0390   -0.9071 C.ar    1  UNL11      -0.0228
     12 C          -1.7264   -1.9152   -1.8392 C.ar    1  UNL11      -0.0565
     13 C          -2.5266   -2.3150   -2.9167 C.ar    1  UNL11      -0.0614
     14 C          -3.8111   -1.8234   -3.0305 C.ar    1  UNL11      -0.0617
     15 C          -4.3359   -0.9425   -2.1073 C.ar    1  UNL11      -0.0614
     16 C          -3.5094   -0.5783   -1.0639 C.ar    1  UNL11      -0.0565
     17 C          -0.7132    0.0443   -2.5586 C.2     1  UNL11       0.1988
     18 N          -2.0667   -0.0237   -2.3518 N.2     1  UNL11       0.0021
     19 N          -2.9268   -0.3629   -3.2623 N.am    1  UNL11      -0.0351
     20 C          -2.5305   -0.6771   -4.4987 C.2     1  UNL11       0.4383
     21 O          -3.3238   -1.0089   -5.4050 O.2     1  UNL11      -0.2116
     22 C          -1.1872   -0.6332   -4.7870 C.ar    1  UNL11       0.1009
     23 C          -0.7110   -0.9416   -6.0297 C.ar    1  UNL11      -0.0441
     24 C           0.6285   -0.9070   -6.3498 C.ar    1  UNL11      -0.0608
     25 C           1.5506   -0.5503   -5.3980 C.ar    1  UNL11      -0.0611
     26 C           1.0678   -0.2319   -4.1182 C.ar    1  UNL11      -0.0513
     27 C          -0.2689   -0.2679   -3.8039 C.ar    1  UNL11       0.0282
     28 H           0.3946    0.4390    0.6335 H       1  UNL11       0.1500
     29 H          -1.0950   -1.4997    0.8099 H       1  UNL11       0.0599
     30 H          -0.6377    1.3179    1.9856 H       1  UNL11       0.0621
     31 H          -2.0538    2.7113    3.4250 H       1  UNL11       0.0618
     32 H          -4.4873    2.4490    3.3722 H       1  UNL11       0.0618
     33 H          -5.4905    0.7969    1.8803 H       1  UNL11       0.0618
     34 H          -4.1456   -0.6242    0.4182 H       1  UNL11       0.0621
     35 H          -0.7326   -2.3181   -1.7809 H       1  UNL11       0.0621
     36 H          -2.1473   -3.0104   -3.6677 H       1  UNL11       0.0618
     37 H          -4.4773   -2.1022   -3.8506 H       1  UNL11       0.0618
     38 H          -5.3465   -0.5667   -2.2125 H       1  UNL11       0.0618
     39 H          -3.9505    0.1247   -0.3414 H       1  UNL11       0.0621
     40 H          -3.9732   -0.4134   -3.0951 H       1  UNL11       0.4829
     41 H          -1.4556   -1.2246   -6.7802 H       1  UNL11       0.0627
     42 H           0.9899   -1.1508   -7.3271 H       1  UNL11       0.0618
     43 H           2.6250   -0.5032   -5.5870 H       1  UNL11       0.0618
     44 H           1.7979    0.0432   -3.3908 H       1  UNL11       0.0624
@<TRIPOS>BOND
     1     1     2    2
     2     2     3   am
     3     2    17    1
     4     3     4    1
     5     3    28    1
     6     4     5    1
     7     4    11    1
     8     4    29    1
     9     5     6   ar
    10     6     7   ar
    11     6    30    1
    12     7     8   ar
    13     7    31    1
    14     8     9   ar
    15     8    32    1
    16     9    10   ar
    17     9    33    1
    18    10     5   ar
    19    10    34    1
    20    11    12   ar
    21    12    13   ar
    22    12    35    1
    23    13    14   ar
    24    13    36    1
    25    14    15   ar
    26    14    37    1
    27    15    16   ar
    28    15    38    1
    29    16    11   ar
    30    16    39    1
    31    17    18    2
    32    18    19    1
    33    19    20   am
    34    19    40    1
    35    20    21    2
    36    20    22    1
    37    22    23   ar
    38    23    24   ar
    39    23    41    1
    40    24    25   ar
    41    24    42    1
    42    25    26   ar
    43    25    43    1
    44    26    27   ar
    45    26    44    1
    46    27    17    1
    47    27    22   ar
@<TRIPOS>MOLECULE
*****
 44 47 0 0 0
SMALL
GASTEIGER

@<TRIPOS>ATOM
      1 O           1.2074    1.0334   -1.5565 O.2     1  UNL11      -0.2683
      2 C           0.1338    0.4333   -1.4692 C.2     1  UNL11       0.2695
      3 N          -0.2519    0.1207   -0.1042 N.am    1  UNL11      -0.2991
      4 C          -1.4410   -0.5803    0.2381 C.3     1  UNL11       0.0740
      5 C          -2.3062    0.2573    1.1086 C.ar    1  UNL11      -0.0228
      6 C          -3.1120   -0.3720    2.0235 C.ar    1  UNL11      -0.0565
      7 C          -3.9313    0.3879    2.8531 C.ar    1  UNL11      -0.0614
      8 C          -3.9271    1.7506    2.7505 C.ar    1  UNL11      -0.0617
      9 C          -3.1020    2.3468    1.8171 C.ar    1  UNL11      -0.0614
     10 C          -2.2758    1.6107    0.9783 C.ar    1  UNL11      -0.0565
     11 C          -2.2264   -1.0390   -0.9071 C.ar    1  UNL11      -0.0228
     12 C          -1.7264   -1.9152   -1.8392 C.ar    1  UNL11      -0.0565
     13 C          -2.5266   -2.3150   -2.9167 C.ar    1  UNL11      -0.0614
     14 C          -3.8111   -1.8234   -3.0305 C.ar    1  UNL11      -0.0617
     15 C          -4.3359   -0.9425   -2.1073 C.ar    1  UNL11      -0.0614
     16 C          -3.5094   -0.5783   -1.0639 C.ar    1  UNL11      -0.0565
     17 C          -0.7132    0.0443   -2.5586 C.2     1  UNL11       0.1988
     18 N          -1.8873   -0.6074   -2.2828 N.2     1  UNL11       0.0021
     19 N          -2.7294   -1.0053   -3.1864 N.am    1  UNL11      -0.0351
     20 C          -2.4940   -0.7963   -4.4846 C.2     1  UNL11       0.4383
     21 O          -3.2768   -1.1623   -5.3867 O.2     1  UNL11      -0.2116
     22 C          -1.3364   -0.1481   -4.8443 C.ar    1  UNL11       0.1009
     23 C          -1.0312    0.0995   -6.1526 C.ar    1  UNL11      -0.0441
     24 C           0.1201    0.7463   -6.5449 C.ar    1  UNL11      -0.0608
     25 C           1.0207    1.1733   -5.6015 C.ar    1  UNL11      -0.0611
     26 C           0.7131    0.9221   -4.2544 C.ar    1  UNL11      -0.0513
     27 C          -0.4363    0.2766   -3.8681 C.ar    1  UNL11       0.0282
     28 H           0.3946    0.4390    0.6335 H       1  UNL11       0.1500
     29 H          -1.0950   -1.4997    0.8099 H       1  UNL11       0.0599
     30 H          -3.1528   -1.4433    2.1426 H       1  UNL11       0.0621
     31 H          -4.5832   -0.0730    3.5901 H       1  UNL11       0.0618
     32 H          -4.5553    2.3663    3.3842 H       1  UNL11       0.0618
     33 H          -3.0969    3.4211    1.7342 H       1  UNL11       0.0618
     34 H          -1.6448    2.1229    0.2605 H       1  UNL11       0.0621
     35 H          -0.7326   -2.3181   -1.7809 H       1  UNL11       0.0621
     36 H          -2.1473   -3.0104   -3.6677 H       1  UNL11       0.0618
     37 H          -4.4773   -2.1022   -3.8506 H       1  UNL11       0.0618
     38 H          -5.3465   -0.5667   -2.2125 H       1  UNL11       0.0618
     39 H          -3.9505    0.1247   -0.3414 H       1  UNL11       0.0621
     40 H          -3.6365   -1.5094   -2.9656 H       1  UNL11       0.4829
     41 H          -1.7567   -0.2456   -6.8956 H       1  UNL11       0.0627
     42 H           0.3487    0.9348   -7.5733 H       1  UNL11       0.0618
     43 H           1.9504    1.6912   -5.8461 H       1  UNL11       0.0618
     44 H           1.4236    1.2606   -3.5346 H       1  UNL11       0.0624
@<TRIPOS>BOND
     1     1     2    2
     2     2     3   am
     3     2    17    1
     4     3     4    1
     5     3    28    1
     6     4     5    1
     7     4    11    1
     8     4    29    1
     9     5     6   ar
    10     6     7   ar
    11     6    30    1
    12     7     8   ar
    13     7    31    1
    14     8     9   ar
    15     8    32    1
    16     9    10   ar
    17     9    33    1
    18    10     5   ar
    19    10    34    1
    20    11    12   ar
    21    12    13   ar
    22    12    35    1
    23    13    14   ar
    24    13    36    1
    25    14    15   ar
    26    14    37    1
    27    15    16   ar
    28    15    38    1
    29    16    11   ar
    30    16    39    1
    31    17    18    2
    32    18    19    1
    33    19    20   am
    34    19    40    1
    35    20    21    2
    36    20    22    1
    37    22    23   ar
    38    23    24   ar
    39    23    41    1
    40    24    25   ar
    41    24    42    1
    42    25    26   ar
    43    25    43    1
    44    26    27   ar
    45    26    44    1
    46    27    17    1
    47    27    22   ar
@<TRIPOS>MOLECULE
*****
 44 47 0 0 0
SMALL
GASTEIGER

@<TRIPOS>ATOM
      1 O           1.9344    0.2536   -0.6281 O.2     1  UNL11      -0.2683
      2 C           1.0206   -0.5304   -0.3620 C.2     1  UNL11       0.2695
      3 N          -0.2519    0.1207   -0.1042 N.am    1  UNL11      -0.2991
      4 C          -1.4410   -0.5803    0.2381 C.3     1  UNL11       0.0740
      5 C          -2.3062    0.2573    1.1086 C.ar    1  UNL11      -0.0228
      6 C          -3.1120   -0.3720    2.0235 C.ar    1  UNL11      -0.0565
      7 C          -3.9313    0.3879    2.8531 C.ar    1  UNL11      -0.0614
      8 C          -3.9271    1.7506    2.7505 C.ar    1  UNL11      -0.0617
      9 C          -3.1020    2.3468    1.8171 C.ar    1  UNL11      -0.0614
     10 C          -2.2758    1.6107    0.9783 C.ar    1  UNL11      -0.0565
     11 C          -2.2264   -1.0390   -0.9071 C.ar    1  UNL11      -0.0228
     12 C          -2.2335   -0.3739   -2.1088 C.ar    1  UNL11      -0.0565
     13 C          -3.0094   -0.8608   -3.1681 C.ar    1  UNL11      -0.0614
     14 C          -3.7597   -2.0057   -2.9927 C.ar    1  UNL11      -0.0617
     15 C          -3.7691   -2.6914   -1.7955 C.ar    1  UNL11      -0.0614
     16 C          -2.9890   -2.1729   -0.7821 C.ar    1  UNL11      -0.0565
     17 C           1.1200   -1.9590   -0.2931 C.2     1  UNL11       0.1988
     18 N           0.0206   -2.7140   -0.6104 N.2     1  UNL11       0.0021
     19 N          -0.0050   -4.0111   -0.5836 N.am    1  UNL11      -0.0351
     20 C           1.0764   -4.7125   -0.2327 C.2     1  UNL11       0.4383
     21 O           1.0958   -5.9610   -0.1933 O.2     1  UNL11      -0.2116
     22 C           2.2212   -4.0283    0.1004 C.ar    1  UNL11       0.1009
     23 C           3.3637   -4.6804    0.4686 C.ar    1  UNL11      -0.0441
     24 C           4.5262   -4.0237    0.8079 C.ar    1  UNL11      -0.0608
     25 C           4.5694   -2.6522    0.7844 C.ar    1  UNL11      -0.0611
     26 C           3.3982   -1.9754    0.4067 C.ar    1  UNL11      -0.0513
     27 C           2.2413   -2.6347    0.0693 C.ar    1  UNL11       0.0282
     28 H          -0.2587    1.1490   -0.1821 H       1  UNL11       0.1500
     29 H          -1.0950   -1.4997    0.8099 H       1  UNL11       0.0599
     30 H          -3.1528   -1.4433    2.1426 H       1  UNL11       0.0621
     31 H          -4.5832   -0.0730    3.5901 H       1  UNL11       0.0618
     32 H          -4.5553    2.3663    3.3842 H       1  UNL11       0.0618
     33 H          -3.0969    3.4211    1.7342 H       1  UNL11       0.0618
     34 H          -1.6448    2.1229    0.2605 H       1  UNL11       0.0621
     35 H          -1.6611    0.5185   -2.2803 H       1  UNL11       0.0621
     36 H          -3.0283   -0.3463   -4.1306 H       1  UNL11       0.0618
     37 H          -4.3821   -2.4285   -3.7852 H       1  UNL11       0.0618
     38 H          -4.3642   -3.5887   -1.6757 H       1  UNL11       0.0618
     39 H          -3.0133   -2.7373    0.1622 H       1  UNL11       0.0621
     40 H          -0.8597   -4.5891   -0.8305 H       1  UNL11       0.4829
     41 H           3.3172   -5.7737    0.4836 H       1  UNL11       0.0627
     42 H           5.4155   -4.5454    1.0948 H       1  UNL11       0.0618
     43 H           5.4581   -2.0723    1.0416 H       1  UNL11       0.0618
     44 H           3.4493   -0.9101    0.3938 H       1  UNL11       0.0624
@<TRIPOS>BOND
     1     1     2    2
     2     2     3   am
     3     2    17    1
     4     3     4    1
     5     3    28    1
     6     4     5    1
     7     4    11    1
     8     4    29    1
     9     5     6   ar
    10     6     7   ar
    11     6    30    1
    12     7     8   ar
    13     7    31    1
    14     8     9   ar
    15     8    32    1
    16     9    10   ar
    17     9    33    1
    18    10     5   ar
    19    10    34    1
    20    11    12   ar
    21    12    13   ar
    22    12    35    1
    23    13    14   ar
    24    13    36    1
    25    14    15   ar
    26    14    37    1
    27    15    16   ar
    28    15    38    1
    29    16    11   ar
    30    16    39    1
    31    17    18    2
    32    18    19    1
    33    19    20   am
    34    19    40    1
    35    20    21    2
    36    20    22    1
    37    22    23   ar
    38    23    24   ar
    39    23    41    1
    40    24    25   ar
    41    24    42    1
    42    25    26   ar
    43    25    43    1
    44    26    27   ar
    45    26    44    1
    46    27    17    1
    47    27    22   ar
@<TRIPOS>MOLECULE
*****
 44 47 0 0 0
SMALL
GASTEIGER

@<TRIPOS>ATOM
      1 O           0.9420    1.9798   -0.5406 O.2     1  UNL11      -0.2683
      2 C          -0.1745    1.5666   -0.2195 C.2     1  UNL11       0.2695
      3 N          -0.2519    0.1207   -0.1042 N.am    1  UNL11      -0.2991
      4 C          -1.4410   -0.5803    0.2381 C.3     1  UNL11       0.0740
      5 C          -2.3062    0.2573    1.1086 C.ar    1  UNL11      -0.0228
      6 C          -1.7054    1.1745    1.9334 C.ar    1  UNL11      -0.0565
      7 C          -2.4917    1.9736    2.7581 C.ar    1  UNL11      -0.0614
      8 C          -3.8515    1.8393    2.7403 C.ar    1  UNL11      -0.0617
      9 C          -4.4185    0.9047    1.8961 C.ar    1  UNL11      -0.0614
     10 C          -3.6559    0.0959    1.0643 C.ar    1  UNL11      -0.0565
     11 C          -2.2264   -1.0390   -0.9071 C.ar    1  UNL11      -0.0228
     12 C          -2.7284   -0.1747   -1.8491 C.ar    1  UNL11      -0.0565
     13 C          -3.4768   -0.6745   -2.9221 C.ar    1  UNL11      -0.0614
     14 C          -3.7021   -2.0323   -3.0215 C.ar    1  UNL11      -0.0617
     15 C          -3.2085   -2.9205   -2.0882 C.ar    1  UNL11      -0.0614
     16 C          -2.4775   -2.3804   -1.0498 C.ar    1  UNL11      -0.0565
     17 C          -1.3364    2.3674    0.0339 C.2     1  UNL11       0.1988
     18 N          -2.2646    1.9181    0.9371 N.2     1  UNL11       0.0021
     19 N          -3.3511    2.5576    1.2447 N.am    1  UNL11      -0.0351
     20 C          -3.6398    3.7330    0.6794 C.2     1  UNL11       0.4383
     21 O          -4.6735    4.3818    0.9460 O.2     1  UNL11      -0.2116
     22 C          -2.7581    4.2527   -0.2383 C.ar    1  UNL11       0.1009
     23 C          -2.9891    5.4494   -0.8552 C.ar    1  UNL11      -0.0441
     24 C          -2.1254    5.9965   -1.7786 C.ar    1  UNL11      -0.0608
     25 C          -0.9723    5.3325   -2.1145 C.ar    1  UNL11      -0.0611
     26 C          -0.7285    4.1016   -1.4839 C.ar    1  UNL11      -0.0513
     27 C          -1.5929    3.5601   -0.5637 C.ar    1  UNL11       0.0282
     28 H           0.6218   -0.3958   -0.2872 H       1  UNL11       0.1500
     29 H          -1.0950   -1.4997    0.8099 H       1  UNL11       0.0599
     30 H          -0.6377    1.3179    1.9856 H       1  UNL11       0.0621
     31 H          -2.0538    2.7113    3.4250 H       1  UNL11       0.0618
     32 H          -4.4873    2.4490    3.3722 H       1  UNL11       0.0618
     33 H          -5.4905    0.7969    1.8803 H       1  UNL11       0.0618
     34 H          -4.1456   -0.6242    0.4182 H       1  UNL11       0.0621
     35 H          -2.5714    0.8868   -1.8035 H       1  UNL11       0.0621
     36 H          -3.8843   -0.0037   -3.6808 H       1  UNL11       0.0618
     37 H          -4.2787   -2.4750   -3.8375 H       1  UNL11       0.0618
     38 H          -3.3952   -3.9835   -2.1821 H       1  UNL11       0.0618
     39 H          -2.0949   -3.1087   -0.3190 H       1  UNL11       0.0621
     40 H          -4.0653    2.2037    1.9448 H       1  UNL11       0.4829
     41 H          -3.9116    5.9694   -0.5794 H       1  UNL11       0.0627
     42 H          -2.3170    6.9351   -2.2556 H       1  UNL11       0.0618
     43 H          -0.2472    5.7112   -2.8377 H       1  UNL11       0.0618
     44 H           0.1720    3.5992   -1.7564 H       1  UNL11       0.0624
@<TRIPOS>BOND
     1     1     2    2
     2     2     3   am
     3     2    17    1
     4     3     4    1
     5     3    28    1
     6     4     5    1
     7     4    11    1
     8     4    29    1
     9     5     6   ar
    10     6     7   ar
    11     6    30    1
    12     7     8   ar
    13     7    31    1
    14     8     9   ar
    15     8    32    1
    16     9    10   ar
    17     9    33    1
    18    10     5   ar
    19    10    34    1
    20    11    12   ar
    21    12    13   ar
    22    12    35    1
    23    13    14   ar
    24    13    36    1
    25    14    15   ar
    26    14    37    1
    27    15    16   ar
    28    15    38    1
    29    16    11   ar
    30    16    39    1
    31    17    18    2
    32    18    19    1
    33    19    20   am
    34    19    40    1
    35    20    21    2
    36    20    22    1
    37    22    23   ar
    38    23    24   ar
    39    23    41    1
    40    24    25   ar
    41    24    42    1
    42    25    26   ar
    43    25    43    1
    44    26    27   ar
    45    26    44    1
    46    27    17    1
    47    27    22   ar
@<TRIPOS>MOLECULE
*****
 44 47 0 0 0
SMALL
GASTEIGER

@<TRIPOS>ATOM
      1 O          -1.1489    1.0194   -1.9642 O.2     1  UNL11      -0.2683
      2 C          -0.1242    0.9630   -1.2806 C.2     1  UNL11       0.2695
      3 N          -0.2519    0.1207   -0.1042 N.am    1  UNL11      -0.2991
      4 C          -1.4410   -0.5803    0.2381 C.3     1  UNL11       0.0740
      5 C          -2.3062    0.2573    1.1086 C.ar    1  UNL11      -0.0228
      6 C          -3.2373    1.0694    0.5120 C.ar    1  UNL11      -0.0565
      7 C          -4.0624    1.8633    1.3032 C.ar    1  UNL11      -0.0614
      8 C          -3.9393    1.8281    2.6638 C.ar    1  UNL11      -0.0617
      9 C          -2.9900    0.9977    3.2265 C.ar    1  UNL11      -0.0614
     10 C          -2.1554    0.1965    2.4588 C.ar    1  UNL11      -0.0565
     11 C          -2.2264   -1.0390   -0.9071 C.ar    1  UNL11      -0.0228
     12 C          -2.2335   -0.3739   -2.1088 C.ar    1  UNL11      -0.0565
     13 C          -3.0094   -0.8608   -3.1681 C.ar    1  UNL11      -0.0614
     14 C          -3.7597   -2.0057   -2.9927 C.ar    1  UNL11      -0.0617
     15 C          -3.7691   -2.6914   -1.7955 C.ar    1  UNL11      -0.0614
     16 C          -2.9890   -2.1729   -0.7821 C.ar    1  UNL11      -0.0565
     17 C           1.1147    1.6324   -1.5499 C.2     1  UNL11       0.1988
     18 N           1.0879    2.8275   -2.2209 N.2     1  UNL11       0.0021
     19 N           2.1443    3.5200   -2.5184 N.am    1  UNL11      -0.0351
     20 C           3.3635    3.0943   -2.1766 C.2     1  UNL11       0.4383
     21 O           4.4063    3.7286   -2.4429 O.2     1  UNL11      -0.2116
     22 C           3.4756    1.9028   -1.5004 C.ar    1  UNL11       0.1009
     23 C           4.6903    1.4070   -1.1196 C.ar    1  UNL11      -0.0441
     24 C           4.8356    0.2168   -0.4413 C.ar    1  UNL11      -0.0608
     25 C           3.7282   -0.5271   -0.1193 C.ar    1  UNL11      -0.0611
     26 C           2.4762   -0.0232   -0.5077 C.ar    1  UNL11      -0.0513
     27 C           2.3364    1.1642   -1.1841 C.ar    1  UNL11       0.0282
     28 H           0.5847    0.0488    0.4946 H       1  UNL11       0.1500
     29 H          -1.0950   -1.4997    0.8099 H       1  UNL11       0.0599
     30 H          -3.3728    1.1342   -0.5561 H       1  UNL11       0.0621
     31 H          -4.8117    2.5192    0.8687 H       1  UNL11       0.0618
     32 H          -4.5691    2.4361    3.3034 H       1  UNL11       0.0618
     33 H          -2.8910    0.9683    4.2990 H       1  UNL11       0.0618
     34 H          -1.4245   -0.4399    2.9454 H       1  UNL11       0.0621
     35 H          -1.6611    0.5185   -2.2803 H       1  UNL11       0.0621
     36 H          -3.0283   -0.3463   -4.1306 H       1  UNL11       0.0618
     37 H          -4.3821   -2.4285   -3.7852 H       1  UNL11       0.0618
     38 H          -4.3642   -3.5887   -1.6757 H       1  UNL11       0.0618
     39 H          -3.0133   -2.7373    0.1622 H       1  UNL11       0.0621
     40 H           2.1161    4.4444   -3.0381 H       1  UNL11       0.4829
     41 H           5.5659    2.0088   -1.3819 H       1  UNL11       0.0627
     42 H           5.7927   -0.1617   -0.1480 H       1  UNL11       0.0618
     43 H           3.7750   -1.4774    0.4165 H       1  UNL11       0.0618
     44 H           1.6264   -0.6138   -0.2495 H       1  UNL11       0.0624
@<TRIPOS>BOND
     1     1     2    2
     2     2     3   am
     3     2    17    1
     4     3     4    1
     5     3    28    1
     6     4     5    1
     7     4    11    1
     8     4    29    1
     9     5     6   ar
    10     6     7   ar
    11     6    30    1
    12     7     8   ar
    13     7    31    1
    14     8     9   ar
    15     8    32    1
    16     9    10   ar
    17     9    33    1
    18    10     5   ar
    19    10    34    1
    20    11    12   ar
    21    12    13   ar
    22    12    35    1
    23    13    14   ar
    24    13    36    1
    25    14    15   ar
    26    14    37    1
    27    15    16   ar
    28    15    38    1
    29    16    11   ar
    30    16    39    1
    31    17    18    2
    32    18    19    1
    33    19    20   am
    34    19    40    1
    35    20    21    2
    36    20    22    1
    37    22    23   ar
    38    23    24   ar
    39    23    41    1
    40    24    25   ar
    41    24    42    1
    42    25    26   ar
    43    25    43    1
    44    26    27   ar
    45    26    44    1
    46    27    17    1
    47    27    22   ar
@<TRIPOS>MOLECULE
*****
 44 47 0 0 0
SMALL
GASTEIGER

@<TRIPOS>ATOM
      1 O           1.8854    0.7515    0.2214 O.2     1  UNL11      -0.2683
      2 C           0.9713    0.0604    0.6767 C.2     1  UNL11       0.2695
      3 N          -0.2519    0.1207   -0.1042 N.am    1  UNL11      -0.2991
      4 C          -1.4410   -0.5803    0.2381 C.3     1  UNL11       0.0740
      5 C          -2.3062    0.2573    1.1086 C.ar    1  UNL11      -0.0228
      6 C          -3.5667    0.5694    0.6657 C.ar    1  UNL11      -0.0565
      7 C          -4.3992    1.3508    1.4614 C.ar    1  UNL11      -0.0614
      8 C          -3.9565    1.7999    2.6738 C.ar    1  UNL11      -0.0617
      9 C          -2.6812    1.4643    3.0843 C.ar    1  UNL11      -0.0614
     10 C          -1.8320    0.6864    2.3088 C.ar    1  UNL11      -0.0565
     11 C          -2.2264   -1.0390   -0.9071 C.ar    1  UNL11      -0.0228
     12 C          -2.0384   -2.2720   -1.4823 C.ar    1  UNL11      -0.0565
     13 C          -2.8199   -2.6532   -2.5801 C.ar    1  UNL11      -0.0614
     14 C          -3.7721   -1.7843   -3.0729 C.ar    1  UNL11      -0.0617
     15 C          -3.9797   -0.5408   -2.5125 C.ar    1  UNL11      -0.0614
     16 C          -3.1856   -0.2107   -1.4332 C.ar    1  UNL11      -0.0565
     17 C           1.0276   -0.7528    1.8561 C.2     1  UNL11       0.1988
     18 N           1.8582   -0.3761    2.8795 N.2     1  UNL11       0.0021
     19 N           1.9897   -1.0333    3.9908 N.am    1  UNL11      -0.0351
     20 C           1.2992   -2.1555    4.2111 C.2     1  UNL11       0.4383
     21 O           1.3952   -2.8188    5.2653 O.2     1  UNL11      -0.2116
     22 C           0.4432   -2.6007    3.2320 C.ar    1  UNL11       0.1009
     23 C          -0.2941   -3.7399    3.3894 C.ar    1  UNL11      -0.0441
     24 C          -1.1601   -4.2119    2.4275 C.ar    1  UNL11      -0.0608
     25 C          -1.3103   -3.5282    1.2470 C.ar    1  UNL11      -0.0611
     26 C          -0.5553   -2.3561    1.0787 C.ar    1  UNL11      -0.0513
     27 C           0.3070   -1.8895    2.0408 C.ar    1  UNL11       0.0282
     28 H          -0.2224    0.7138   -0.9474 H       1  UNL11       0.1500
     29 H          -1.0950   -1.4997    0.8099 H       1  UNL11       0.0599
     30 H          -3.9621    0.2412   -0.2826 H       1  UNL11       0.0621
     31 H          -5.4038    1.6193    1.1461 H       1  UNL11       0.0618
     32 H          -4.5843    2.4100    3.3133 H       1  UNL11       0.0618
     33 H          -2.3298    1.8173    4.0399 H       1  UNL11       0.0618
     34 H          -0.8387    0.4484    2.6729 H       1  UNL11       0.0621
     35 H          -1.3079   -2.9730   -1.1240 H       1  UNL11       0.0621
     36 H          -2.6854   -3.6287   -3.0510 H       1  UNL11       0.0618
     37 H          -4.4083   -2.0311   -3.9264 H       1  UNL11       0.0618
     38 H          -4.7318    0.1285   -2.9125 H       1  UNL11       0.0618
     39 H          -3.3701    0.7856   -1.0042 H       1  UNL11       0.0621
     40 H           2.6347   -0.7359    4.7788 H       1  UNL11       0.4829
     41 H          -0.1659   -4.2764    4.3345 H       1  UNL11       0.0627
     42 H          -1.7328   -5.1059    2.5620 H       1  UNL11       0.0618
     43 H          -1.9793   -3.8485    0.4456 H       1  UNL11       0.0618
     44 H          -0.6842   -1.8374    0.1557 H       1  UNL11       0.0624
@<TRIPOS>BOND
     1     1     2    2
     2     2     3   am
     3     2    17    1
     4     3     4    1
     5     3    28    1
     6     4     5    1
     7     4    11    1
     8     4    29    1
     9     5     6   ar
    10     6     7   ar
    11     6    30    1
    12     7     8   ar
    13     7    31    1
    14     8     9   ar
    15     8    32    1
    16     9    10   ar
    17     9    33    1
    18    10     5   ar
    19    10    34    1
    20    11    12   ar
    21    12    13   ar
    22    12    35    1
    23    13    14   ar
    24    13    36    1
    25    14    15   ar
    26    14    37    1
    27    15    16   ar
    28    15    38    1
    29    16    11   ar
    30    16    39    1
    31    17    18    2
    32    18    19    1
    33    19    20   am
    34    19    40    1
    35    20    21    2
    36    20    22    1
    37    22    23   ar
    38    23    24   ar
    39    23    41    1
    40    24    25   ar
    41    24    42    1
    42    25    26   ar
    43    25    43    1
    44    26    27   ar
    45    26    44    1
    46    27    17    1
    47    27    22   ar
@<TRIPOS>MOLECULE
*****
 44 47 0 0 0
SMALL
GASTEIGER

@<TRIPOS>ATOM
      1 O          -1.2417    2.1405    0.0094 O.2     1  UNL11      -0.2683
      2 C          -0.1745    1.5666   -0.2195 C.2     1  UNL11       0.2695
      3 N          -0.2519    0.1207   -0.1042 N.am    1  UNL11      -0.2991
      4 C          -1.4410   -0.5803    0.2381 C.3     1  UNL11       0.0740
      5 C          -2.3062    0.2573    1.1086 C.ar    1  UNL11      -0.0228
      6 C          -1.7979    0.6907    2.3070 C.ar    1  UNL11      -0.0565
      7 C          -2.5856    1.4783    3.1414 C.ar    1  UNL11      -0.0614
      8 C          -3.8552    1.8128    2.7621 C.ar    1  UNL11      -0.0617
      9 C          -4.3307    1.3570    1.5482 C.ar    1  UNL11      -0.0614
     10 C          -3.5646    0.5703    0.6985 C.ar    1  UNL11      -0.0565
     11 C          -2.2264   -1.0390   -0.9071 C.ar    1  UNL11      -0.0228
     12 C          -3.4105   -1.7198   -0.7625 C.ar    1  UNL11      -0.0565
     13 C          -4.1157   -2.1366   -1.8983 C.ar    1  UNL11      -0.0614
     14 C          -3.6125   -1.8581   -3.1528 C.ar    1  UNL11      -0.0617
     15 C          -2.4256   -1.1759   -3.3240 C.ar    1  UNL11      -0.0614
     16 C          -1.7675   -0.7861   -2.1753 C.ar    1  UNL11      -0.0565
     17 C           1.0673    2.1905   -0.5716 C.2     1  UNL11       0.1988
     18 N           1.1148    3.5567   -0.6737 N.2     1  UNL11       0.0021
     19 N           2.1813    4.2275   -0.9848 N.am    1  UNL11      -0.0351
     20 C           3.3367    3.6046   -1.2329 C.2     1  UNL11       0.4383
     21 O           4.3863    4.2107   -1.5356 O.2     1  UNL11      -0.2116
     22 C           3.3720    2.2329   -1.1512 C.ar    1  UNL11       0.1009
     23 C           4.5187    1.5306   -1.3918 C.ar    1  UNL11      -0.0441
     24 C           4.5864    0.1566   -1.3180 C.ar    1  UNL11      -0.0608
     25 C           3.4673   -0.5671   -0.9902 C.ar    1  UNL11      -0.0611
     26 C           2.2850    0.1487   -0.7415 C.ar    1  UNL11      -0.0513
     27 C           2.2225    1.5189   -0.8164 C.ar    1  UNL11       0.0282
     28 H           0.6218   -0.3958   -0.2872 H       1  UNL11       0.1500
     29 H          -1.0950   -1.4997    0.8099 H       1  UNL11       0.0599
     30 H          -0.8040    0.4533    2.6522 H       1  UNL11       0.0621
     31 H          -2.2193    1.8411    4.0978 H       1  UNL11       0.0618
     32 H          -4.4899    2.4249    3.3929 H       1  UNL11       0.0618
     33 H          -5.3314    1.6194    1.2470 H       1  UNL11       0.0618
     34 H          -3.9807    0.2356   -0.2452 H       1  UNL11       0.0621
     35 H          -3.8315   -1.9522    0.1978 H       1  UNL11       0.0621
     36 H          -5.0583   -2.6789   -1.8040 H       1  UNL11       0.0618
     37 H          -4.1217   -2.1600   -4.0714 H       1  UNL11       0.0618
     38 H          -2.0455   -0.9660   -4.3165 H       1  UNL11       0.0618
     39 H          -0.8239   -0.2440   -2.3381 H       1  UNL11       0.0621
     40 H           2.2108    5.2852   -1.0620 H       1  UNL11       0.4829
     41 H           5.4043    2.1183   -1.6522 H       1  UNL11       0.0627
     42 H           5.4907   -0.3831   -1.5086 H       1  UNL11       0.0618
     43 H           3.4542   -1.6564   -0.9149 H       1  UNL11       0.0618
     44 H           1.4250   -0.4292   -0.4881 H       1  UNL11       0.0624
@<TRIPOS>BOND
     1     1     2    2
     2     2     3   am
     3     2    17    1
     4     3     4    1
     5     3    28    1
     6     4     5    1
     7     4    11    1
     8     4    29    1
     9     5     6   ar
    10     6     7   ar
    11     6    30    1
    12     7     8   ar
    13     7    31    1
    14     8     9   ar
    15     8    32    1
    16     9    10   ar
    17     9    33    1
    18    10     5   ar
    19    10    34    1
    20    11    12   ar
    21    12    13   ar
    22    12    35    1
    23    13    14   ar
    24    13    36    1
    25    14    15   ar
    26    14    37    1
    27    15    16   ar
    28    15    38    1
    29    16    11   ar
    30    16    39    1
    31    17    18    2
    32    18    19    1
    33    19    20   am
    34    19    40    1
    35    20    21    2
    36    20    22    1
    37    22    23   ar
    38    23    24   ar
    39    23    41    1
    40    24    25   ar
    41    24    42    1
    42    25    26   ar
    43    25    43    1
    44    26    27   ar
    45    26    44    1
    46    27    17    1
    47    27    22   ar
@<TRIPOS>MOLECULE
*****
 44 47 0 0 0
SMALL
GASTEIGER

@<TRIPOS>ATOM
      1 O           1.8854    0.7515    0.2214 O.2     1  UNL11      -0.2683
      2 C           0.9713    0.0604    0.6767 C.2     1  UNL11       0.2695
      3 N          -0.2519    0.1207   -0.1042 N.am    1  UNL11      -0.2991
      4 C          -1.4410   -0.5803    0.2381 C.3     1  UNL11       0.0740
      5 C          -2.3062    0.2573    1.1086 C.ar    1  UNL11      -0.0228
      6 C          -3.1120   -0.3720    2.0235 C.ar    1  UNL11      -0.0565
      7 C          -3.9313    0.3879    2.8531 C.ar    1  UNL11      -0.0614
      8 C          -3.9271    1.7506    2.7505 C.ar    1  UNL11      -0.0617
      9 C          -3.1020    2.3468    1.8171 C.ar    1  UNL11      -0.0614
     10 C          -2.2758    1.6107    0.9783 C.ar    1  UNL11      -0.0565
     11 C          -2.2264   -1.0390   -0.9071 C.ar    1  UNL11      -0.0228
     12 C          -1.7264   -1.9152   -1.8392 C.ar    1  UNL11      -0.0565
     13 C          -2.5266   -2.3150   -2.9167 C.ar    1  UNL11      -0.0614
     14 C          -3.8111   -1.8234   -3.0305 C.ar    1  UNL11      -0.0617
     15 C          -4.3359   -0.9425   -2.1073 C.ar    1  UNL11      -0.0614
     16 C          -3.5094   -0.5783   -1.0639 C.ar    1  UNL11      -0.0565
     17 C           1.0276   -0.7528    1.8561 C.2     1  UNL11       0.1988
     18 N           2.2299   -1.2969    2.2269 N.2     1  UNL11       0.0021
     19 N           2.3990   -2.0467    3.2726 N.am    1  UNL11      -0.0351
     20 C           1.3753   -2.3433    4.0779 C.2     1  UNL11       0.4383
     21 O           1.4932   -3.0606    5.0939 O.2     1  UNL11      -0.2116
     22 C           0.1345   -1.8354    3.7744 C.ar    1  UNL11       0.1009
     23 C          -0.9566   -2.0975    4.5533 C.ar    1  UNL11      -0.0441
     24 C          -2.2125   -1.6037    4.2760 C.ar    1  UNL11      -0.0608
     25 C          -2.4075   -0.8094    3.1740 C.ar    1  UNL11      -0.0611
     26 C          -1.2899   -0.5358    2.3688 C.ar    1  UNL11      -0.0513
     27 C          -0.0395   -1.0307    2.6495 C.ar    1  UNL11       0.0282
     28 H          -0.2224    0.7138   -0.9474 H       1  UNL11       0.1500
     29 H          -1.0950   -1.4997    0.8099 H       1  UNL11       0.0599
     30 H          -3.1528   -1.4433    2.1426 H       1  UNL11       0.0621
     31 H          -4.5832   -0.0730    3.5901 H       1  UNL11       0.0618
     32 H          -4.5553    2.3663    3.3842 H       1  UNL11       0.0618
     33 H          -3.0969    3.4211    1.7342 H       1  UNL11       0.0618
     34 H          -1.6448    2.1229    0.2605 H       1  UNL11       0.0621
     35 H          -0.7326   -2.3181   -1.7809 H       1  UNL11       0.0621
     36 H          -2.1473   -3.0104   -3.6677 H       1  UNL11       0.0618
     37 H          -4.4773   -2.1022   -3.8506 H       1  UNL11       0.0618
     38 H          -5.3465   -0.5667   -2.2125 H       1  UNL11       0.0618
     39 H          -3.9505    0.1247   -0.3414 H       1  UNL11       0.0621
     40 H           3.3327   -2.4646    3.5536 H       1  UNL11       0.4829
     41 H          -0.7888   -2.7320    5.4291 H       1  UNL11       0.0627
     42 H          -3.0602   -1.8159    4.8937 H       1  UNL11       0.0618
     43 H          -3.3761   -0.3869    2.8989 H       1  UNL11       0.0618
     44 H          -1.4592    0.0830    1.5167 H       1  UNL11       0.0624
@<TRIPOS>BOND
     1     1     2    2
     2     2     3   am
     3     2    17    1
     4     3     4    1
     5     3    28    1
     6     4     5    1
     7     4    11    1
     8     4    29    1
     9     5     6   ar
    10     6     7   ar
    11     6    30    1
    12     7     8   ar
    13     7    31    1
    14     8     9   ar
    15     8    32    1
    16     9    10   ar
    17     9    33    1
    18    10     5   ar
    19    10    34    1
    20    11    12   ar
    21    12    13   ar
    22    12    35    1
    23    13    14   ar
    24    13    36    1
    25    14    15   ar
    26    14    37    1
    27    15    16   ar
    28    15    38    1
    29    16    11   ar
    30    16    39    1
    31    17    18    2
    32    18    19    1
    33    19    20   am
    34    19    40    1
    35    20    21    2
    36    20    22    1
    37    22    23   ar
    38    23    24   ar
    39    23    41    1
    40    24    25   ar
    41    24    42    1
    42    25    26   ar
    43    25    43    1
    44    26    27   ar
    45    26    44    1
    46    27    17    1
    47    27    22   ar
@<TRIPOS>MOLECULE
*****
 44 47 0 0 0
SMALL
GASTEIGER

@<TRIPOS>ATOM
      1 O           1.9344    0.2536   -0.6281 O.2     1  UNL11      -0.2683
      2 C           1.0206   -0.5304   -0.3620 C.2     1  UNL11       0.2695
      3 N          -0.2519    0.1207   -0.1042 N.am    1  UNL11      -0.2991
      4 C          -1.4410   -0.5803    0.2381 C.3     1  UNL11       0.0740
      5 C          -2.3062    0.2573    1.1086 C.ar    1  UNL11      -0.0228
      6 C          -1.8695    1.5141    1.4437 C.ar    1  UNL11      -0.0565
      7 C          -2.6605    2.3210    2.2561 C.ar    1  UNL11      -0.0614
      8 C          -3.8621    1.8571    2.7126 C.ar    1  UNL11      -0.0617
      9 C          -4.2667    0.5864    2.3533 C.ar    1  UNL11      -0.0614
     10 C          -3.4957   -0.2375    1.5442 C.ar    1  UNL11      -0.0565
     11 C          -2.2264   -1.0390   -0.9071 C.ar    1  UNL11      -0.0228
     12 C          -1.7264   -1.9152   -1.8392 C.ar    1  UNL11      -0.0565
     13 C          -2.5266   -2.3150   -2.9167 C.ar    1  UNL11      -0.0614
     14 C          -3.8111   -1.8234   -3.0305 C.ar    1  UNL11      -0.0617
     15 C          -4.3359   -0.9425   -2.1073 C.ar    1  UNL11      -0.0614
     16 C          -3.5094   -0.5783   -1.0639 C.ar    1  UNL11      -0.0565
     17 C           1.1200   -1.9590   -0.2931 C.2     1  UNL11       0.1988
     18 N           2.0436   -2.5960   -1.0808 N.2     1  UNL11       0.0021
     19 N           2.2215   -3.8813   -1.1010 N.am    1  UNL11      -0.0351
     20 C           1.4894   -4.6884   -0.3283 C.2     1  UNL11       0.4383
     21 O           1.6273   -5.9299   -0.3163 O.2     1  UNL11      -0.2116
     22 C           0.5401   -4.1263    0.4918 C.ar    1  UNL11       0.1009
     23 C          -0.2441   -4.8907    1.3083 C.ar    1  UNL11      -0.0441
     24 C          -1.2035   -4.3578    2.1410 C.ar    1  UNL11      -0.0608
     25 C          -1.4037   -3.0005    2.1739 C.ar    1  UNL11      -0.0611
     26 C          -0.6008   -2.2086    1.3370 C.ar    1  UNL11      -0.0513
     27 C           0.3545   -2.7448    0.5082 C.ar    1  UNL11       0.0282
     28 H          -0.2587    1.1490   -0.1821 H       1  UNL11       0.1500
     29 H          -1.0950   -1.4997    0.8099 H       1  UNL11       0.0599
     30 H          -0.9296    1.9255    1.1108 H       1  UNL11       0.0621
     31 H          -2.3498    3.3218    2.5435 H       1  UNL11       0.0618
     32 H          -4.4978    2.4647    3.3467 H       1  UNL11       0.0618
     33 H          -5.2138    0.2184    2.7119 H       1  UNL11       0.0618
     34 H          -3.8548   -1.2282    1.2883 H       1  UNL11       0.0621
     35 H          -0.7326   -2.3181   -1.7809 H       1  UNL11       0.0621
     36 H          -2.1473   -3.0104   -3.6677 H       1  UNL11       0.0618
     37 H          -4.4773   -2.1022   -3.8506 H       1  UNL11       0.0618
     38 H          -5.3465   -0.5667   -2.2125 H       1  UNL11       0.0618
     39 H          -3.9505    0.1247   -0.3414 H       1  UNL11       0.0621
     40 H           2.9384   -4.3676   -1.7134 H       1  UNL11       0.4829
     41 H          -0.0754   -5.9715    1.2734 H       1  UNL11       0.0627
     42 H          -1.8121   -4.9668    2.7766 H       1  UNL11       0.0618
     43 H          -2.1466   -2.5157    2.8107 H       1  UNL11       0.0618
     44 H          -0.7696   -1.1561    1.3751 H       1  UNL11       0.0624
@<TRIPOS>BOND
     1     1     2    2
     2     2     3   am
     3     2    17    1
     4     3     4    1
     5     3    28    1
     6     4     5    1
     7     4    11    1
     8     4    29    1
     9     5     6   ar
    10     6     7   ar
    11     6    30    1
    12     7     8   ar
    13     7    31    1
    14     8     9   ar
    15     8    32    1
    16     9    10   ar
    17     9    33    1
    18    10     5   ar
    19    10    34    1
    20    11    12   ar
    21    12    13   ar
    22    12    35    1
    23    13    14   ar
    24    13    36    1
    25    14    15   ar
    26    14    37    1
    27    15    16   ar
    28    15    38    1
    29    16    11   ar
    30    16    39    1
    31    17    18    2
    32    18    19    1
    33    19    20   am
    34    19    40    1
    35    20    21    2
    36    20    22    1
    37    22    23   ar
    38    23    24   ar
    39    23    41    1
    40    24    25   ar
    41    24    42    1
    42    25    26   ar
    43    25    43    1
    44    26    27   ar
    45    26    44    1
    46    27    17    1
    47    27    22   ar
@<TRIPOS>MOLECULE
*****
 44 47 0 0 0
SMALL
GASTEIGER

@<TRIPOS>ATOM
      1 O           1.8854    0.7515    0.2214 O.2     1  UNL11      -0.2683
      2 C           0.9713    0.0604    0.6767 C.2     1  UNL11       0.2695
      3 N          -0.2519    0.1207   -0.1042 N.am    1  UNL11      -0.2991
      4 C          -1.4410   -0.5803    0.2381 C.3     1  UNL11       0.0740
      5 C          -2.3062    0.2573    1.1086 C.ar    1  UNL11      -0.0228
      6 C          -1.7054    1.1745    1.9334 C.ar    1  UNL11      -0.0565
      7 C          -2.4917    1.9736    2.7581 C.ar    1  UNL11      -0.0614
      8 C          -3.8515    1.8393    2.7403 C.ar    1  UNL11      -0.0617
      9 C          -4.4185    0.9047    1.8961 C.ar    1  UNL11      -0.0614
     10 C          -3.6559    0.0959    1.0643 C.ar    1  UNL11      -0.0565
     11 C          -2.2264   -1.0390   -0.9071 C.ar    1  UNL11      -0.0228
     12 C          -2.7284   -0.1747   -1.8491 C.ar    1  UNL11      -0.0565
     13 C          -3.4768   -0.6745   -2.9221 C.ar    1  UNL11      -0.0614
     14 C          -3.7021   -2.0323   -3.0215 C.ar    1  UNL11      -0.0617
     15 C          -3.2085   -2.9205   -2.0882 C.ar    1  UNL11      -0.0614
     16 C          -2.4775   -2.3804   -1.0498 C.ar    1  UNL11      -0.0565
     17 C           1.0276   -0.7528    1.8561 C.2     1  UNL11       0.1988
     18 N           0.2598   -1.8870    1.9140 N.2     1  UNL11       0.0021
     19 N           0.2308   -2.6963    2.9280 N.am    1  UNL11      -0.0351
     20 C           0.9734   -2.4640    4.0138 C.2     1  UNL11       0.4383
     21 O           0.9759   -3.2161    5.0114 O.2     1  UNL11      -0.2116
     22 C           1.7720   -1.3454    4.0342 C.ar    1  UNL11       0.1009
     23 C           2.5574   -1.0458    5.1110 C.ar    1  UNL11      -0.0441
     24 C           3.3681    0.0669    5.1618 C.ar    1  UNL11      -0.0608
     25 C           3.4099    0.9324    4.0976 C.ar    1  UNL11      -0.0611
     26 C           2.6050    0.6303    2.9872 C.ar    1  UNL11      -0.0513
     27 C           1.7981   -0.4805    2.9413 C.ar    1  UNL11       0.0282
     28 H          -0.2224    0.7138   -0.9474 H       1  UNL11       0.1500
     29 H          -1.0950   -1.4997    0.8099 H       1  UNL11       0.0599
     30 H          -0.6377    1.3179    1.9856 H       1  UNL11       0.0621
     31 H          -2.0538    2.7113    3.4250 H       1  UNL11       0.0618
     32 H          -4.4873    2.4490    3.3722 H       1  UNL11       0.0618
     33 H          -5.4905    0.7969    1.8803 H       1  UNL11       0.0618
     34 H          -4.1456   -0.6242    0.4182 H       1  UNL11       0.0621
     35 H          -2.5714    0.8868   -1.8035 H       1  UNL11       0.0621
     36 H          -3.8843   -0.0037   -3.6808 H       1  UNL11       0.0618
     37 H          -4.2787   -2.4750   -3.8375 H       1  UNL11       0.0618
     38 H          -3.3952   -3.9835   -2.1821 H       1  UNL11       0.0618
     39 H          -2.0949   -3.1087   -0.3190 H       1  UNL11       0.0621
     40 H          -0.3661   -3.5726    2.9659 H       1  UNL11       0.4829
     41 H           2.5156   -1.7431    5.9534 H       1  UNL11       0.0627
     42 H           3.9793    0.2915    6.0111 H       1  UNL11       0.0618
     43 H           4.0304    1.8307    4.0748 H       1  UNL11       0.0618
     44 H           2.6497    1.3133    2.1692 H       1  UNL11       0.0624
@<TRIPOS>BOND
     1     1     2    2
     2     2     3   am
     3     2    17    1
     4     3     4    1
     5     3    28    1
     6     4     5    1
     7     4    11    1
     8     4    29    1
     9     5     6   ar
    10     6     7   ar
    11     6    30    1
    12     7     8   ar
    13     7    31    1
    14     8     9   ar
    15     8    32    1
    16     9    10   ar
    17     9    33    1
    18    10     5   ar
    19    10    34    1
    20    11    12   ar
    21    12    13   ar
    22    12    35    1
    23    13    14   ar
    24    13    36    1
    25    14    15   ar
    26    14    37    1
    27    15    16   ar
    28    15    38    1
    29    16    11   ar
    30    16    39    1
    31    17    18    2
    32    18    19    1
    33    19    20   am
    34    19    40    1
    35    20    21    2
    36    20    22    1
    37    22    23   ar
    38    23    24   ar
    39    23    41    1
    40    24    25   ar
    41    24    42    1
    42    25    26   ar
    43    25    43    1
    44    26    27   ar
    45    26    44    1
    46    27    17    1
    47    27    22   ar
@<TRIPOS>MOLECULE
*****
 44 47 0 0 0
SMALL
GASTEIGER

@<TRIPOS>ATOM
      1 O           1.9344    0.2536   -0.6281 O.2     1  UNL11      -0.2683
      2 C           1.0206   -0.5304   -0.3620 C.2     1  UNL11       0.2695
      3 N          -0.2519    0.1207   -0.1042 N.am    1  UNL11      -0.2991
      4 C          -1.4410   -0.5803    0.2381 C.3     1  UNL11       0.0740
      5 C          -2.3062    0.2573    1.1086 C.ar    1  UNL11      -0.0228
      6 C          -1.8695    1.5141    1.4437 C.ar    1  UNL11      -0.0565
      7 C          -2.6605    2.3210    2.2561 C.ar    1  UNL11      -0.0614
      8 C          -3.8621    1.8571    2.7126 C.ar    1  UNL11      -0.0617
      9 C          -4.2667    0.5864    2.3533 C.ar    1  UNL11      -0.0614
     10 C          -3.4957   -0.2375    1.5442 C.ar    1  UNL11      -0.0565
     11 C          -2.2264   -1.0390   -0.9071 C.ar    1  UNL11      -0.0228
     12 C          -1.7264   -1.9152   -1.8392 C.ar    1  UNL11      -0.0565
     13 C          -2.5266   -2.3150   -2.9167 C.ar    1  UNL11      -0.0614
     14 C          -3.8111   -1.8234   -3.0305 C.ar    1  UNL11      -0.0617
     15 C          -4.3359   -0.9425   -2.1073 C.ar    1  UNL11      -0.0614
     16 C          -3.5094   -0.5783   -1.0639 C.ar    1  UNL11      -0.0565
     17 C           1.1200   -1.9590   -0.2931 C.2     1  UNL11       0.1988
     18 N           2.3152   -2.5214    0.0735 N.2     1  UNL11       0.0021
     19 N           2.5202   -3.7992    0.1695 N.am    1  UNL11      -0.0351
     20 C           1.5445   -4.6732   -0.0927 C.2     1  UNL11       0.4383
     21 O           1.6983   -5.9104   -0.0130 O.2     1  UNL11      -0.2116
     22 C           0.3141   -4.1883   -0.4675 C.ar    1  UNL11       0.1009
     23 C          -0.7290   -5.0238   -0.7504 C.ar    1  UNL11      -0.0441
     24 C          -1.9732   -4.5690   -1.1284 C.ar    1  UNL11      -0.0608
     25 C          -2.2060   -3.2207   -1.2345 C.ar    1  UNL11      -0.0611
     26 C          -1.1379   -2.3560   -0.9450 C.ar    1  UNL11      -0.0513
     27 C           0.1011   -2.8143   -0.5685 C.ar    1  UNL11       0.0282
     28 H          -0.2587    1.1490   -0.1821 H       1  UNL11       0.1500
     29 H          -1.0950   -1.4997    0.8099 H       1  UNL11       0.0599
     30 H          -0.9296    1.9255    1.1108 H       1  UNL11       0.0621
     31 H          -2.3498    3.3218    2.5435 H       1  UNL11       0.0618
     32 H          -4.4978    2.4647    3.3467 H       1  UNL11       0.0618
     33 H          -5.2138    0.2184    2.7119 H       1  UNL11       0.0618
     34 H          -3.8548   -1.2282    1.2883 H       1  UNL11       0.0621
     35 H          -0.7326   -2.3181   -1.7809 H       1  UNL11       0.0621
     36 H          -2.1473   -3.0104   -3.6677 H       1  UNL11       0.0618
     37 H          -4.4773   -2.1022   -3.8506 H       1  UNL11       0.0618
     38 H          -5.3465   -0.5667   -2.2125 H       1  UNL11       0.0618
     39 H          -3.9505    0.1247   -0.3414 H       1  UNL11       0.0621
     40 H           3.4482   -4.2276    0.4539 H       1  UNL11       0.4829
     41 H          -0.5314   -6.0965   -0.6625 H       1  UNL11       0.0627
     42 H          -2.7831   -5.2333   -1.3477 H       1  UNL11       0.0618
     43 H          -3.1680   -2.7961   -1.5287 H       1  UNL11       0.0618
     44 H          -1.3362   -1.3116   -1.0323 H       1  UNL11       0.0624
@<TRIPOS>BOND
     1     1     2    2
     2     2     3   am
     3     2    17    1
     4     3     4    1
     5     3    28    1
     6     4     5    1
     7     4    11    1
     8     4    29    1
     9     5     6   ar
    10     6     7   ar
    11     6    30    1
    12     7     8   ar
    13     7    31    1
    14     8     9   ar
    15     8    32    1
    16     9    10   ar
    17     9    33    1
    18    10     5   ar
    19    10    34    1
    20    11    12   ar
    21    12    13   ar
    22    12    35    1
    23    13    14   ar
    24    13    36    1
    25    14    15   ar
    26    14    37    1
    27    15    16   ar
    28    15    38    1
    29    16    11   ar
    30    16    39    1
    31    17    18    2
    32    18    19    1
    33    19    20   am
    34    19    40    1
    35    20    21    2
    36    20    22    1
    37    22    23   ar
    38    23    24   ar
    39    23    41    1
    40    24    25   ar
    41    24    42    1
    42    25    26   ar
    43    25    43    1
    44    26    27   ar
    45    26    44    1
    46    27    17    1
    47    27    22   ar
@<TRIPOS>MOLECULE
*****
 44 47 0 0 0
SMALL
GASTEIGER

@<TRIPOS>ATOM
      1 O           1.9344    0.2536   -0.6281 O.2     1  UNL11      -0.2683
      2 C           1.0206   -0.5304   -0.3620 C.2     1  UNL11       0.2695
      3 N          -0.2519    0.1207   -0.1042 N.am    1  UNL11      -0.2991
      4 C          -1.4410   -0.5803    0.2381 C.3     1  UNL11       0.0740
      5 C          -2.3062    0.2573    1.1086 C.ar    1  UNL11      -0.0228
      6 C          -3.2373    1.0694    0.5120 C.ar    1  UNL11      -0.0565
      7 C          -4.0624    1.8633    1.3032 C.ar    1  UNL11      -0.0614
      8 C          -3.9393    1.8281    2.6638 C.ar    1  UNL11      -0.0617
      9 C          -2.9900    0.9977    3.2265 C.ar    1  UNL11      -0.0614
     10 C          -2.1554    0.1965    2.4588 C.ar    1  UNL11      -0.0565
     11 C          -2.2264   -1.0390   -0.9071 C.ar    1  UNL11      -0.0228
     12 C          -1.6516   -1.3624   -2.1119 C.ar    1  UNL11      -0.0565
     13 C          -2.4577   -1.7925   -3.1733 C.ar    1  UNL11      -0.0614
     14 C          -3.8231   -1.8869   -2.9968 C.ar    1  UNL11      -0.0617
     15 C          -4.4239   -1.5679   -1.7965 C.ar    1  UNL11      -0.0614
     16 C          -3.5883   -1.1493   -0.7811 C.ar    1  UNL11      -0.0565
     17 C           1.1200   -1.9590   -0.2931 C.2     1  UNL11       0.1988
     18 N           2.3321   -2.5498   -0.5401 N.2     1  UNL11       0.0021
     19 N           2.5389   -3.8305   -0.5059 N.am    1  UNL11      -0.0351
     20 C           1.5481   -4.6789   -0.2179 C.2     1  UNL11       0.4383
     21 O           1.7029   -5.9178   -0.1742 O.2     1  UNL11      -0.2116
     22 C           0.3002   -4.1646    0.0425 C.ar    1  UNL11       0.1009
     23 C          -0.7588   -4.9731    0.3441 C.ar    1  UNL11      -0.0441
     24 C          -2.0208   -4.4885    0.6097 C.ar    1  UNL11      -0.0608
     25 C          -2.2556   -3.1367    0.5775 C.ar    1  UNL11      -0.0611
     26 C          -1.1712   -2.2998    0.2682 C.ar    1  UNL11      -0.0513
     27 C           0.0854   -2.7878    0.0039 C.ar    1  UNL11       0.0282
     28 H          -0.2587    1.1490   -0.1821 H       1  UNL11       0.1500
     29 H          -1.0950   -1.4997    0.8099 H       1  UNL11       0.0599
     30 H          -3.3728    1.1342   -0.5561 H       1  UNL11       0.0621
     31 H          -4.8117    2.5192    0.8687 H       1  UNL11       0.0618
     32 H          -4.5691    2.4361    3.3034 H       1  UNL11       0.0618
     33 H          -2.8910    0.9683    4.2990 H       1  UNL11       0.0618
     34 H          -1.4245   -0.4399    2.9454 H       1  UNL11       0.0621
     35 H          -0.5932   -1.3018   -2.2836 H       1  UNL11       0.0621
     36 H          -2.0197   -2.0540   -4.1383 H       1  UNL11       0.0618
     37 H          -4.4976   -2.2166   -3.7909 H       1  UNL11       0.0618
     38 H          -5.4975   -1.6479   -1.6759 H       1  UNL11       0.0618
     39 H          -4.0910   -0.9007    0.1657 H       1  UNL11       0.0621
     40 H           3.4800   -4.2810   -0.6982 H       1  UNL11       0.4829
     41 H          -0.5594   -6.0488    0.3667 H       1  UNL11       0.0627
     42 H          -2.8431   -5.1317    0.8449 H       1  UNL11       0.0618
     43 H          -3.2312   -2.6892    0.7783 H       1  UNL11       0.0618
     44 H          -1.3713   -1.2523    0.2476 H       1  UNL11       0.0624
@<TRIPOS>BOND
     1     1     2    2
     2     2     3   am
     3     2    17    1
     4     3     4    1
     5     3    28    1
     6     4     5    1
     7     4    11    1
     8     4    29    1
     9     5     6   ar
    10     6     7   ar
    11     6    30    1
    12     7     8   ar
    13     7    31    1
    14     8     9   ar
    15     8    32    1
    16     9    10   ar
    17     9    33    1
    18    10     5   ar
    19    10    34    1
    20    11    12   ar
    21    12    13   ar
    22    12    35    1
    23    13    14   ar
    24    13    36    1
    25    14    15   ar
    26    14    37    1
    27    15    16   ar
    28    15    38    1
    29    16    11   ar
    30    16    39    1
    31    17    18    2
    32    18    19    1
    33    19    20   am
    34    19    40    1
    35    20    21    2
    36    20    22    1
    37    22    23   ar
    38    23    24   ar
    39    23    41    1
    40    24    25   ar
    41    24    42    1
    42    25    26   ar
    43    25    43    1
    44    26    27   ar
    45    26    44    1
    46    27    17    1
    47    27    22   ar
@<TRIPOS>MOLECULE
*****
 44 47 0 0 0
SMALL
GASTEIGER

@<TRIPOS>ATOM
      1 O           0.8918    1.8284   -1.0249 O.2     1  UNL11      -0.2683
      2 C          -0.2406    1.3908   -0.8089 C.2     1  UNL11       0.2695
      3 N          -0.2519    0.1207   -0.1042 N.am    1  UNL11      -0.2991
      4 C          -1.4410   -0.5803    0.2381 C.3     1  UNL11       0.0740
      5 C          -2.3062    0.2573    1.1086 C.ar    1  UNL11      -0.0228
      6 C          -3.5667    0.5694    0.6657 C.ar    1  UNL11      -0.0565
      7 C          -4.3992    1.3508    1.4614 C.ar    1  UNL11      -0.0614
      8 C          -3.9565    1.7999    2.6738 C.ar    1  UNL11      -0.0617
      9 C          -2.6812    1.4643    3.0843 C.ar    1  UNL11      -0.0614
     10 C          -1.8320    0.6864    2.3088 C.ar    1  UNL11      -0.0565
     11 C          -2.2264   -1.0390   -0.9071 C.ar    1  UNL11      -0.0228
     12 C          -2.2335   -0.3739   -2.1088 C.ar    1  UNL11      -0.0565
     13 C          -3.0094   -0.8608   -3.1681 C.ar    1  UNL11      -0.0614
     14 C          -3.7597   -2.0057   -2.9927 C.ar    1  UNL11      -0.0617
     15 C          -3.7691   -2.6914   -1.7955 C.ar    1  UNL11      -0.0614
     16 C          -2.9890   -2.1729   -0.7821 C.ar    1  UNL11      -0.0565
     17 C          -1.4773    2.0121   -1.1831 C.2     1  UNL11       0.1988
     18 N          -2.5587    1.2169   -1.4612 N.2     1  UNL11       0.0021
     19 N          -3.7247    1.6681   -1.8089 N.am    1  UNL11      -0.0351
     20 C          -3.9482    2.9803   -1.9205 C.2     1  UNL11       0.4383
     21 O          -5.0542    3.4575   -2.2522 O.2     1  UNL11      -0.2116
     22 C          -2.9130    3.8458   -1.6581 C.ar    1  UNL11       0.1009
     23 C          -3.0700    5.1995   -1.7522 C.ar    1  UNL11      -0.0441
     24 C          -2.0527    6.0924   -1.4959 C.ar    1  UNL11      -0.0608
     25 C          -0.8139    5.6310   -1.1271 C.ar    1  UNL11      -0.0611
     26 C          -0.6456    4.2403   -1.0283 C.ar    1  UNL11      -0.0513
     27 C          -1.6631    3.3539   -1.2851 C.ar    1  UNL11       0.0282
     28 H           0.6704   -0.2663    0.1471 H       1  UNL11       0.1500
     29 H          -1.0950   -1.4997    0.8099 H       1  UNL11       0.0599
     30 H          -3.9621    0.2412   -0.2826 H       1  UNL11       0.0621
     31 H          -5.4038    1.6193    1.1461 H       1  UNL11       0.0618
     32 H          -4.5843    2.4100    3.3133 H       1  UNL11       0.0618
     33 H          -2.3298    1.8173    4.0399 H       1  UNL11       0.0618
     34 H          -0.8387    0.4484    2.6729 H       1  UNL11       0.0621
     35 H          -1.6611    0.5185   -2.2803 H       1  UNL11       0.0621
     36 H          -3.0283   -0.3463   -4.1306 H       1  UNL11       0.0618
     37 H          -4.3821   -2.4285   -3.7852 H       1  UNL11       0.0618
     38 H          -4.3642   -3.5887   -1.6757 H       1  UNL11       0.0618
     39 H          -3.0133   -2.7373    0.1622 H       1  UNL11       0.0621
     40 H          -4.5575    1.0466   -2.0228 H       1  UNL11       0.4829
     41 H          -4.0620    5.5554   -2.0471 H       1  UNL11       0.0627
     42 H          -2.1875    7.1512   -1.5729 H       1  UNL11       0.0618
     43 H           0.0332    6.2850   -0.9103 H       1  UNL11       0.0618
     44 H           0.3232    3.8990   -0.7406 H       1  UNL11       0.0624
@<TRIPOS>BOND
     1     1     2    2
     2     2     3   am
     3     2    17    1
     4     3     4    1
     5     3    28    1
     6     4     5    1
     7     4    11    1
     8     4    29    1
     9     5     6   ar
    10     6     7   ar
    11     6    30    1
    12     7     8   ar
    13     7    31    1
    14     8     9   ar
    15     8    32    1
    16     9    10   ar
    17     9    33    1
    18    10     5   ar
    19    10    34    1
    20    11    12   ar
    21    12    13   ar
    22    12    35    1
    23    13    14   ar
    24    13    36    1
    25    14    15   ar
    26    14    37    1
    27    15    16   ar
    28    15    38    1
    29    16    11   ar
    30    16    39    1
    31    17    18    2
    32    18    19    1
    33    19    20   am
    34    19    40    1
    35    20    21    2
    36    20    22    1
    37    22    23   ar
    38    23    24   ar
    39    23    41    1
    40    24    25   ar
    41    24    42    1
    42    25    26   ar
    43    25    43    1
    44    26    27   ar
    45    26    44    1
    46    27    17    1
    47    27    22   ar
@<TRIPOS>MOLECULE
*****
 44 47 0 0 0
SMALL
GASTEIGER

@<TRIPOS>ATOM
      1 O           0.5474   -1.5654   -1.3652 O.2     1  UNL11      -0.2683
      2 C           0.7883   -0.4270   -0.9573 C.2     1  UNL11       0.2695
      3 N          -0.2519    0.1207   -0.1042 N.am    1  UNL11      -0.2991
      4 C          -1.4410   -0.5803    0.2381 C.3     1  UNL11       0.0740
      5 C          -2.3062    0.2573    1.1086 C.ar    1  UNL11      -0.0228
      6 C          -2.6186   -0.2117    2.3596 C.ar    1  UNL11      -0.0565
      7 C          -3.4256    0.5530    3.1968 C.ar    1  UNL11      -0.0614
      8 C          -3.8992    1.7611    2.7681 C.ar    1  UNL11      -0.0617
      9 C          -3.5625    2.1984    1.5021 C.ar    1  UNL11      -0.0614
     10 C          -2.7593    1.4542    0.6484 C.ar    1  UNL11      -0.0565
     11 C          -2.2264   -1.0390   -0.9071 C.ar    1  UNL11      -0.0228
     12 C          -2.9989   -2.1738   -0.8629 C.ar    1  UNL11      -0.0565
     13 C          -3.7262   -2.5639   -1.9943 C.ar    1  UNL11      -0.0614
     14 C          -3.6587   -1.8026   -3.1433 C.ar    1  UNL11      -0.0617
     15 C          -2.8901   -0.6589   -3.2125 C.ar    1  UNL11      -0.0614
     16 C          -2.1920   -0.3156   -2.0726 C.ar    1  UNL11      -0.0565
     17 C           1.9569    0.3506   -1.2493 C.2     1  UNL11       0.1988
     18 N           2.5971    0.1576   -2.4460 N.2     1  UNL11       0.0021
     19 N           3.6604    0.8030   -2.8160 N.am    1  UNL11      -0.0351
     20 C           4.2138    1.7261   -2.0248 C.2     1  UNL11       0.4383
     21 O           5.2363    2.3703   -2.3411 O.2     1  UNL11      -0.2116
     22 C           3.6307    1.9789   -0.8059 C.ar    1  UNL11       0.1009
     23 C           4.1425    2.9091    0.0536 C.ar    1  UNL11      -0.0441
     24 C           3.5816    3.1851    1.2812 C.ar    1  UNL11      -0.0608
     25 C           2.4570    2.5112    1.6869 C.ar    1  UNL11      -0.0611
     26 C           1.9255    1.5535    0.8080 C.ar    1  UNL11      -0.0513
     27 C           2.4885    1.2817   -0.4151 C.ar    1  UNL11       0.0282
     28 H          -0.0876    1.0728    0.2564 H       1  UNL11       0.1500
     29 H          -1.0950   -1.4997    0.8099 H       1  UNL11       0.0599
     30 H          -2.2716   -1.1578    2.7438 H       1  UNL11       0.0621
     31 H          -3.6952    0.2165    4.1942 H       1  UNL11       0.0618
     32 H          -4.5296    2.3767    3.3998 H       1  UNL11       0.0618
     33 H          -3.9348    3.1506    1.1617 H       1  UNL11       0.0618
     34 H          -2.5215    1.8386   -0.3372 H       1  UNL11       0.0621
     35 H          -3.0755   -2.7886    0.0143 H       1  UNL11       0.0621
     36 H          -4.3457   -3.4625   -1.9789 H       1  UNL11       0.0618
     37 H          -4.2054   -2.0612   -4.0535 H       1  UNL11       0.0618
     38 H          -2.8489   -0.0734   -4.1230 H       1  UNL11       0.0618
     39 H          -1.5868    0.5998   -2.1529 H       1  UNL11       0.0621
     40 H           4.1507    0.6484   -3.7440 H       1  UNL11       0.4829
     41 H           5.0392    3.4400   -0.2808 H       1  UNL11       0.0627
     42 H           3.9915    3.9164    1.9465 H       1  UNL11       0.0618
     43 H           1.9643    2.6827    2.6462 H       1  UNL11       0.0618
     44 H           1.0516    1.0392    1.1390 H       1  UNL11       0.0624
@<TRIPOS>BOND
     1     1     2    2
     2     2     3   am
     3     2    17    1
     4     3     4    1
     5     3    28    1
     6     4     5    1
     7     4    11    1
     8     4    29    1
     9     5     6   ar
    10     6     7   ar
    11     6    30    1
    12     7     8   ar
    13     7    31    1
    14     8     9   ar
    15     8    32    1
    16     9    10   ar
    17     9    33    1
    18    10     5   ar
    19    10    34    1
    20    11    12   ar
    21    12    13   ar
    22    12    35    1
    23    13    14   ar
    24    13    36    1
    25    14    15   ar
    26    14    37    1
    27    15    16   ar
    28    15    38    1
    29    16    11   ar
    30    16    39    1
    31    17    18    2
    32    18    19    1
    33    19    20   am
    34    19    40    1
    35    20    21    2
    36    20    22    1
    37    22    23   ar
    38    23    24   ar
    39    23    41    1
    40    24    25   ar
    41    24    42    1
    42    25    26   ar
    43    25    43    1
    44    26    27   ar
    45    26    44    1
    46    27    17    1
    47    27    22   ar
@<TRIPOS>MOLECULE
*****
 44 47 0 0 0
SMALL
GASTEIGER

@<TRIPOS>ATOM
      1 O           1.3839    1.6238    0.2656 O.2     1  UNL11      -0.2683
      2 C           0.3674    1.1201    0.7487 C.2     1  UNL11       0.2695
      3 N          -0.2519    0.1207   -0.1042 N.am    1  UNL11      -0.2991
      4 C          -1.4410   -0.5803    0.2381 C.3     1  UNL11       0.0740
      5 C          -2.3062    0.2573    1.1086 C.ar    1  UNL11      -0.0228
      6 C          -3.5667    0.5694    0.6657 C.ar    1  UNL11      -0.0565
      7 C          -4.3992    1.3508    1.4614 C.ar    1  UNL11      -0.0614
      8 C          -3.9565    1.7999    2.6738 C.ar    1  UNL11      -0.0617
      9 C          -2.6812    1.4643    3.0843 C.ar    1  UNL11      -0.0614
     10 C          -1.8320    0.6864    2.3088 C.ar    1  UNL11      -0.0565
     11 C          -2.2264   -1.0390   -0.9071 C.ar    1  UNL11      -0.0228
     12 C          -1.7264   -1.9152   -1.8392 C.ar    1  UNL11      -0.0565
     13 C          -2.5266   -2.3150   -2.9167 C.ar    1  UNL11      -0.0614
     14 C          -3.8111   -1.8234   -3.0305 C.ar    1  UNL11      -0.0617
     15 C          -4.3359   -0.9425   -2.1073 C.ar    1  UNL11      -0.0614
     16 C          -3.5094   -0.5783   -1.0639 C.ar    1  UNL11      -0.0565
     17 C          -0.2137    1.4335    2.0214 C.2     1  UNL11       0.1988
     18 N          -0.8950    0.4537    2.6960 N.2     1  UNL11       0.0021
     19 N          -1.4601    0.6231    3.8519 N.am    1  UNL11      -0.0351
     20 C          -1.4099    1.8037    4.4748 C.2     1  UNL11       0.4383
     21 O          -1.9396    2.0105    5.5871 O.2     1  UNL11      -0.2116
     22 C          -0.7442    2.8393    3.8631 C.ar    1  UNL11       0.1009
     23 C          -0.6529    4.0731    4.4420 C.ar    1  UNL11      -0.0441
     24 C           0.0068    5.1305    3.8548 C.ar    1  UNL11      -0.0608
     25 C           0.6095    4.9674    2.6327 C.ar    1  UNL11      -0.0611
     26 C           0.5196    3.7012    2.0319 C.ar    1  UNL11      -0.0513
     27 C          -0.1395    2.6500    2.6214 C.ar    1  UNL11       0.0282
     28 H           0.2225   -0.0669   -1.0005 H       1  UNL11       0.1500
     29 H          -1.0950   -1.4997    0.8099 H       1  UNL11       0.0599
     30 H          -3.9621    0.2412   -0.2826 H       1  UNL11       0.0621
     31 H          -5.4038    1.6193    1.1461 H       1  UNL11       0.0618
     32 H          -4.5843    2.4100    3.3133 H       1  UNL11       0.0618
     33 H          -2.3298    1.8173    4.0399 H       1  UNL11       0.0618
     34 H          -0.8387    0.4484    2.6729 H       1  UNL11       0.0621
     35 H          -0.7326   -2.3181   -1.7809 H       1  UNL11       0.0621
     36 H          -2.1473   -3.0104   -3.6677 H       1  UNL11       0.0618
     37 H          -4.4773   -2.1022   -3.8506 H       1  UNL11       0.0618
     38 H          -5.3465   -0.5667   -2.2125 H       1  UNL11       0.0618
     39 H          -3.9505    0.1247   -0.3414 H       1  UNL11       0.0621
     40 H          -1.9860   -0.1400    4.3684 H       1  UNL11       0.4829
     41 H          -1.1373    4.1911    5.4162 H       1  UNL11       0.0627
     42 H           0.0718    6.0930    4.3181 H       1  UNL11       0.0618
     43 H           1.1473    5.7639    2.1145 H       1  UNL11       0.0618
     44 H           0.9935    3.5920    1.0826 H       1  UNL11       0.0624
@<TRIPOS>BOND
     1     1     2    2
     2     2     3   am
     3     2    17    1
     4     3     4    1
     5     3    28    1
     6     4     5    1
     7     4    11    1
     8     4    29    1
     9     5     6   ar
    10     6     7   ar
    11     6    30    1
    12     7     8   ar
    13     7    31    1
    14     8     9   ar
    15     8    32    1
    16     9    10   ar
    17     9    33    1
    18    10     5   ar
    19    10    34    1
    20    11    12   ar
    21    12    13   ar
    22    12    35    1
    23    13    14   ar
    24    13    36    1
    25    14    15   ar
    26    14    37    1
    27    15    16   ar
    28    15    38    1
    29    16    11   ar
    30    16    39    1
    31    17    18    2
    32    18    19    1
    33    19    20   am
    34    19    40    1
    35    20    21    2
    36    20    22    1
    37    22    23   ar
    38    23    24   ar
    39    23    41    1
    40    24    25   ar
    41    24    42    1
    42    25    26   ar
    43    25    43    1
    44    26    27   ar
    45    26    44    1
    46    27    17    1
    47    27    22   ar
@<TRIPOS>MOLECULE
*****
 44 47 0 0 0
SMALL
GASTEIGER

@<TRIPOS>ATOM
      1 O          -0.8285    1.9560    1.0668 O.2     1  UNL11      -0.2683
      2 C           0.0475    1.4677    0.3494 C.2     1  UNL11       0.2695
      3 N          -0.2519    0.1207   -0.1042 N.am    1  UNL11      -0.2991
      4 C          -1.4410   -0.5803    0.2381 C.3     1  UNL11       0.0740
      5 C          -2.3062    0.2573    1.1086 C.ar    1  UNL11      -0.0228
      6 C          -2.6186   -0.2117    2.3596 C.ar    1  UNL11      -0.0565
      7 C          -3.4256    0.5530    3.1968 C.ar    1  UNL11      -0.0614
      8 C          -3.8992    1.7611    2.7681 C.ar    1  UNL11      -0.0617
      9 C          -3.5625    2.1984    1.5021 C.ar    1  UNL11      -0.0614
     10 C          -2.7593    1.4542    0.6484 C.ar    1  UNL11      -0.0565
     11 C          -2.2264   -1.0390   -0.9071 C.ar    1  UNL11      -0.0228
     12 C          -3.4105   -1.7198   -0.7625 C.ar    1  UNL11      -0.0565
     13 C          -4.1157   -2.1366   -1.8983 C.ar    1  UNL11      -0.0614
     14 C          -3.6125   -1.8581   -3.1528 C.ar    1  UNL11      -0.0617
     15 C          -2.4256   -1.1759   -3.3240 C.ar    1  UNL11      -0.0614
     16 C          -1.7675   -0.7861   -2.1753 C.ar    1  UNL11      -0.0565
     17 C           1.2718    2.1001   -0.0465 C.2     1  UNL11       0.1988
     18 N           1.8415    3.0213    0.7938 N.2     1  UNL11       0.0021
     19 N           2.9455    3.6544    0.5400 N.am    1  UNL11      -0.0351
     20 C           3.6159    3.4385   -0.5951 C.2     1  UNL11       0.4383
     21 O           4.6813    4.0255   -0.8794 O.2     1  UNL11      -0.2116
     22 C           3.1095    2.5280   -1.4918 C.ar    1  UNL11       0.1009
     23 C           3.7421    2.2573   -2.6719 C.ar    1  UNL11      -0.0441
     24 C           3.2604    1.3509   -3.5907 C.ar    1  UNL11      -0.0608
     25 C           2.0943    0.6733   -3.3370 C.ar    1  UNL11      -0.0611
     26 C           1.4388    0.9466   -2.1255 C.ar    1  UNL11      -0.0513
     27 C           1.9231    1.8515   -1.2124 C.ar    1  UNL11       0.0282
     28 H           0.4582   -0.3230   -0.7063 H       1  UNL11       0.1500
     29 H          -1.0950   -1.4997    0.8099 H       1  UNL11       0.0599
     30 H          -2.2716   -1.1578    2.7438 H       1  UNL11       0.0621
     31 H          -3.6952    0.2165    4.1942 H       1  UNL11       0.0618
     32 H          -4.5296    2.3767    3.3998 H       1  UNL11       0.0618
     33 H          -3.9348    3.1506    1.1617 H       1  UNL11       0.0618
     34 H          -2.5215    1.8386   -0.3372 H       1  UNL11       0.0621
     35 H          -3.8315   -1.9522    0.1978 H       1  UNL11       0.0621
     36 H          -5.0583   -2.6789   -1.8040 H       1  UNL11       0.0618
     37 H          -4.1217   -2.1600   -4.0714 H       1  UNL11       0.0618
     38 H          -2.0455   -0.9660   -4.3165 H       1  UNL11       0.0618
     39 H          -0.8239   -0.2440   -2.3381 H       1  UNL11       0.0621
     40 H           3.3807    4.3664    1.1952 H       1  UNL11       0.4829
     41 H           4.6709    2.8037   -2.8631 H       1  UNL11       0.0627
     42 H           3.7649    1.1470   -4.5123 H       1  UNL11       0.0618
     43 H           1.6597   -0.0570   -4.0227 H       1  UNL11       0.0618
     44 H           0.5342    0.4113   -1.9443 H       1  UNL11       0.0624
@<TRIPOS>BOND
     1     1     2    2
     2     2     3   am
     3     2    17    1
     4     3     4    1
     5     3    28    1
     6     4     5    1
     7     4    11    1
     8     4    29    1
     9     5     6   ar
    10     6     7   ar
    11     6    30    1
    12     7     8   ar
    13     7    31    1
    14     8     9   ar
    15     8    32    1
    16     9    10   ar
    17     9    33    1
    18    10     5   ar
    19    10    34    1
    20    11    12   ar
    21    12    13   ar
    22    12    35    1
    23    13    14   ar
    24    13    36    1
    25    14    15   ar
    26    14    37    1
    27    15    16   ar
    28    15    38    1
    29    16    11   ar
    30    16    39    1
    31    17    18    2
    32    18    19    1
    33    19    20   am
    34    19    40    1
    35    20    21    2
    36    20    22    1
    37    22    23   ar
    38    23    24   ar
    39    23    41    1
    40    24    25   ar
    41    24    42    1
    42    25    26   ar
    43    25    43    1
    44    26    27   ar
    45    26    44    1
    46    27    17    1
    47    27    22   ar
@<TRIPOS>MOLECULE
*****
 44 47 0 0 0
SMALL
GASTEIGER

@<TRIPOS>ATOM
      1 O           1.6722    1.1884    0.3753 O.2     1  UNL11      -0.2683
      2 C           0.7161    0.5889    0.8723 C.2     1  UNL11       0.2695
      3 N          -0.2519    0.1207   -0.1042 N.am    1  UNL11      -0.2991
      4 C          -1.4410   -0.5803    0.2381 C.3     1  UNL11       0.0740
      5 C          -2.3062    0.2573    1.1086 C.ar    1  UNL11      -0.0228
      6 C          -1.8695    1.5141    1.4437 C.ar    1  UNL11      -0.0565
      7 C          -2.6605    2.3210    2.2561 C.ar    1  UNL11      -0.0614
      8 C          -3.8621    1.8571    2.7126 C.ar    1  UNL11      -0.0617
      9 C          -4.2667    0.5864    2.3533 C.ar    1  UNL11      -0.0614
     10 C          -3.4957   -0.2375    1.5442 C.ar    1  UNL11      -0.0565
     11 C          -2.2264   -1.0390   -0.9071 C.ar    1  UNL11      -0.0228
     12 C          -1.8403   -0.8076   -2.2047 C.ar    1  UNL11      -0.0565
     13 C          -2.6372   -1.2691   -3.2598 C.ar    1  UNL11      -0.0614
     14 C          -3.8039   -1.9526   -2.9837 C.ar    1  UNL11      -0.0617
     15 C          -4.2129   -2.1974   -1.6890 C.ar    1  UNL11      -0.0614
     16 C          -3.3947   -1.7232   -0.6840 C.ar    1  UNL11      -0.0565
     17 C           0.5044    0.3355    2.2675 C.2     1  UNL11       0.1988
     18 N          -0.7810    0.2510    2.7362 N.2     1  UNL11       0.0021
     19 N          -1.0913    0.0257    3.9759 N.am    1  UNL11      -0.0351
     20 C          -0.1431   -0.1431    4.9016 C.2     1  UNL11       0.4383
     21 O          -0.3969   -0.3618    6.1051 O.2     1  UNL11      -0.2116
     22 C           1.1732   -0.0729    4.5114 C.ar    1  UNL11       0.1009
     23 C           2.1943   -0.2359    5.4041 C.ar    1  UNL11      -0.0441
     24 C           3.5226   -0.1713    5.0444 C.ar    1  UNL11      -0.0608
     25 C           3.8670    0.0662    3.7373 C.ar    1  UNL11      -0.0611
     26 C           2.8220    0.2346    2.8143 C.ar    1  UNL11      -0.0513
     27 C           1.4989    0.1694    3.1778 C.ar    1  UNL11       0.0282
     28 H          -0.0344    0.3244   -1.0915 H       1  UNL11       0.1500
     29 H          -1.0950   -1.4997    0.8099 H       1  UNL11       0.0599
     30 H          -0.9296    1.9255    1.1108 H       1  UNL11       0.0621
     31 H          -2.3498    3.3218    2.5435 H       1  UNL11       0.0618
     32 H          -4.4978    2.4647    3.3467 H       1  UNL11       0.0618
     33 H          -5.2138    0.2184    2.7119 H       1  UNL11       0.0618
     34 H          -3.8548   -1.2282    1.2883 H       1  UNL11       0.0621
     35 H          -0.9387   -0.2807   -2.4556 H       1  UNL11       0.0621
     36 H          -2.3474   -1.0951   -4.2977 H       1  UNL11       0.0618
     37 H          -4.4621   -2.3341   -3.7682 H       1  UNL11       0.0618
     38 H          -5.1320   -2.7357   -1.4908 H       1  UNL11       0.0618
     39 H          -3.7423   -1.9309    0.3392 H       1  UNL11       0.0621
     40 H          -2.0887   -0.0384    4.3317 H       1  UNL11       0.4829
     41 H           1.9074   -0.4246    6.4431 H       1  UNL11       0.0627
     42 H           4.3143   -0.3006    5.7528 H       1  UNL11       0.0618
     43 H           4.8995    0.1291    3.3876 H       1  UNL11       0.0618
     44 H           3.1074    0.4182    1.8031 H       1  UNL11       0.0624
@<TRIPOS>BOND
     1     1     2    2
     2     2     3   am
     3     2    17    1
     4     3     4    1
     5     3    28    1
     6     4     5    1
     7     4    11    1
     8     4    29    1
     9     5     6   ar
    10     6     7   ar
    11     6    30    1
    12     7     8   ar
    13     7    31    1
    14     8     9   ar
    15     8    32    1
    16     9    10   ar
    17     9    33    1
    18    10     5   ar
    19    10    34    1
    20    11    12   ar
    21    12    13   ar
    22    12    35    1
    23    13    14   ar
    24    13    36    1
    25    14    15   ar
    26    14    37    1
    27    15    16   ar
    28    15    38    1
    29    16    11   ar
    30    16    39    1
    31    17    18    2
    32    18    19    1
    33    19    20   am
    34    19    40    1
    35    20    21    2
    36    20    22    1
    37    22    23   ar
    38    23    24   ar
    39    23    41    1
    40    24    25   ar
    41    24    42    1
    42    25    26   ar
    43    25    43    1
    44    26    27   ar
    45    26    44    1
    46    27    17    1
    47    27    22   ar
@<TRIPOS>MOLECULE
*****
 44 47 0 0 0
SMALL
GASTEIGER

@<TRIPOS>ATOM
      1 O          -1.1489    1.0194   -1.9642 O.2     1  UNL11      -0.2683
      2 C          -0.1242    0.9630   -1.2806 C.2     1  UNL11       0.2695
      3 N          -0.2519    0.1207   -0.1042 N.am    1  UNL11      -0.2991
      4 C          -1.4410   -0.5803    0.2381 C.3     1  UNL11       0.0740
      5 C          -2.3062    0.2573    1.1086 C.ar    1  UNL11      -0.0228
      6 C          -1.8695    1.5141    1.4437 C.ar    1  UNL11      -0.0565
      7 C          -2.6605    2.3210    2.2561 C.ar    1  UNL11      -0.0614
      8 C          -3.8621    1.8571    2.7126 C.ar    1  UNL11      -0.0617
      9 C          -4.2667    0.5864    2.3533 C.ar    1  UNL11      -0.0614
     10 C          -3.4957   -0.2375    1.5442 C.ar    1  UNL11      -0.0565
     11 C          -2.2264   -1.0390   -0.9071 C.ar    1  UNL11      -0.0228
     12 C          -3.5219   -0.6357   -1.1203 C.ar    1  UNL11      -0.0565
     13 C          -4.2240   -1.1128   -2.2341 C.ar    1  UNL11      -0.0614
     14 C          -3.6054   -1.9846   -3.1070 C.ar    1  UNL11      -0.0617
     15 C          -2.3053   -2.4043   -2.9144 C.ar    1  UNL11      -0.0614
     16 C          -1.6552   -1.9069   -1.8034 C.ar    1  UNL11      -0.0565
     17 C           1.1147    1.6324   -1.5499 C.2     1  UNL11       0.1988
     18 N           2.2847    1.0471   -1.1401 N.2     1  UNL11       0.0021
     19 N           3.4615    1.5604   -1.3293 N.am    1  UNL11      -0.0351
     20 C           3.6078    2.7307   -1.9565 C.2     1  UNL11       0.4383
     21 O           4.7207    3.2606   -2.1596 O.2     1  UNL11      -0.2116
     22 C           2.4811    3.3821   -2.3991 C.ar    1  UNL11       0.1009
     23 C           2.5559    4.5818   -3.0480 C.ar    1  UNL11      -0.0441
     24 C           1.4459    5.2589   -3.5034 C.ar    1  UNL11      -0.0608
     25 C           0.1945    4.7293   -3.3111 C.ar    1  UNL11      -0.0611
     26 C           0.1104    3.4960   -2.6447 C.ar    1  UNL11      -0.0513
     27 C           1.2202    2.8246   -2.1924 C.ar    1  UNL11       0.0282
     28 H           0.5847    0.0488    0.4946 H       1  UNL11       0.1500
     29 H          -1.0950   -1.4997    0.8099 H       1  UNL11       0.0599
     30 H          -0.9296    1.9255    1.1108 H       1  UNL11       0.0621
     31 H          -2.3498    3.3218    2.5435 H       1  UNL11       0.0618
     32 H          -4.4978    2.4647    3.3467 H       1  UNL11       0.0618
     33 H          -5.2138    0.2184    2.7119 H       1  UNL11       0.0618
     34 H          -3.8548   -1.2282    1.2883 H       1  UNL11       0.0621
     35 H          -4.0333    0.0421   -0.4626 H       1  UNL11       0.0621
     36 H          -5.2542   -0.8040   -2.4206 H       1  UNL11       0.0618
     37 H          -4.1067   -2.3870   -3.9907 H       1  UNL11       0.0618
     38 H          -1.8355   -3.0892   -3.6100 H       1  UNL11       0.0618
     39 H          -0.6201   -2.2562   -1.6719 H       1  UNL11       0.0621
     40 H           4.3630    1.1018   -1.0093 H       1  UNL11       0.4829
     41 H           3.5588    4.9941   -3.1954 H       1  UNL11       0.0627
     42 H           1.5168    6.1986   -4.0107 H       1  UNL11       0.0618
     43 H          -0.7240    5.2149   -3.6472 H       1  UNL11       0.0618
     44 H          -0.8695    3.0989   -2.5038 H       1  UNL11       0.0624
@<TRIPOS>BOND
     1     1     2    2
     2     2     3   am
     3     2    17    1
     4     3     4    1
     5     3    28    1
     6     4     5    1
     7     4    11    1
     8     4    29    1
     9     5     6   ar
    10     6     7   ar
    11     6    30    1
    12     7     8   ar
    13     7    31    1
    14     8     9   ar
    15     8    32    1
    16     9    10   ar
    17     9    33    1
    18    10     5   ar
    19    10    34    1
    20    11    12   ar
    21    12    13   ar
    22    12    35    1
    23    13    14   ar
    24    13    36    1
    25    14    15   ar
    26    14    37    1
    27    15    16   ar
    28    15    38    1
    29    16    11   ar
    30    16    39    1
    31    17    18    2
    32    18    19    1
    33    19    20   am
    34    19    40    1
    35    20    21    2
    36    20    22    1
    37    22    23   ar
    38    23    24   ar
    39    23    41    1
    40    24    25   ar
    41    24    42    1
    42    25    26   ar
    43    25    43    1
    44    26    27   ar
    45    26    44    1
    46    27    17    1
    47    27    22   ar
@<TRIPOS>MOLECULE
*****
 44 47 0 0 0
SMALL
GASTEIGER

@<TRIPOS>ATOM
      1 O          -0.8285    1.9560    1.0668 O.2     1  UNL11      -0.2683
      2 C           0.0475    1.4677    0.3494 C.2     1  UNL11       0.2695
      3 N          -0.2519    0.1207   -0.1042 N.am    1  UNL11      -0.2991
      4 C          -1.4410   -0.5803    0.2381 C.3     1  UNL11       0.0740
      5 C          -2.3062    0.2573    1.1086 C.ar    1  UNL11      -0.0228
      6 C          -3.1120   -0.3720    2.0235 C.ar    1  UNL11      -0.0565
      7 C          -3.9313    0.3879    2.8531 C.ar    1  UNL11      -0.0614
      8 C          -3.9271    1.7506    2.7505 C.ar    1  UNL11      -0.0617
      9 C          -3.1020    2.3468    1.8171 C.ar    1  UNL11      -0.0614
     10 C          -2.2758    1.6107    0.9783 C.ar    1  UNL11      -0.0565
     11 C          -2.2264   -1.0390   -0.9071 C.ar    1  UNL11      -0.0228
     12 C          -3.4105   -1.7198   -0.7625 C.ar    1  UNL11      -0.0565
     13 C          -4.1157   -2.1366   -1.8983 C.ar    1  UNL11      -0.0614
     14 C          -3.6125   -1.8581   -3.1528 C.ar    1  UNL11      -0.0617
     15 C          -2.4256   -1.1759   -3.3240 C.ar    1  UNL11      -0.0614
     16 C          -1.7675   -0.7861   -2.1753 C.ar    1  UNL11      -0.0565
     17 C           1.2718    2.1001   -0.0465 C.2     1  UNL11       0.1988
     18 N           1.8231    1.7726   -1.2581 N.2     1  UNL11       0.0021
     19 N           2.9250    2.2804   -1.7184 N.am    1  UNL11      -0.0351
     20 C           3.6118    3.1841   -1.0140 C.2     1  UNL11       0.4383
     21 O           4.6761    3.6980   -1.4188 O.2     1  UNL11      -0.2116
     22 C           3.1246    3.5661    0.2132 C.ar    1  UNL11       0.1009
     23 C           3.7745    4.4851    0.9873 C.ar    1  UNL11      -0.0441
     24 C           3.3121    4.8884    2.2207 C.ar    1  UNL11      -0.0608
     25 C           2.1483    4.3607    2.7214 C.ar    1  UNL11      -0.0611
     26 C           1.4750    3.4154    1.9307 C.ar    1  UNL11      -0.0513
     27 C           1.9401    3.0164    0.7013 C.ar    1  UNL11       0.0282
     28 H           0.4582   -0.3230   -0.7063 H       1  UNL11       0.1500
     29 H          -1.0950   -1.4997    0.8099 H       1  UNL11       0.0599
     30 H          -3.1528   -1.4433    2.1426 H       1  UNL11       0.0621
     31 H          -4.5832   -0.0730    3.5901 H       1  UNL11       0.0618
     32 H          -4.5553    2.3663    3.3842 H       1  UNL11       0.0618
     33 H          -3.0969    3.4211    1.7342 H       1  UNL11       0.0618
     34 H          -1.6448    2.1229    0.2605 H       1  UNL11       0.0621
     35 H          -3.8315   -1.9522    0.1978 H       1  UNL11       0.0621
     36 H          -5.0583   -2.6789   -1.8040 H       1  UNL11       0.0618
     37 H          -4.1217   -2.1600   -4.0714 H       1  UNL11       0.0618
     38 H          -2.0455   -0.9660   -4.3165 H       1  UNL11       0.0618
     39 H          -0.8239   -0.2440   -2.3381 H       1  UNL11       0.0621
     40 H           3.3460    2.0222   -2.6574 H       1  UNL11       0.4829
     41 H           4.7012    4.8987    0.5777 H       1  UNL11       0.0627
     42 H           3.8300    5.6094    2.8185 H       1  UNL11       0.0618
     43 H           1.7285    4.6378    3.6906 H       1  UNL11       0.0618
     44 H           0.5724    3.0157    2.3348 H       1  UNL11       0.0624
@<TRIPOS>BOND
     1     1     2    2
     2     2     3   am
     3     2    17    1
     4     3     4    1
     5     3    28    1
     6     4     5    1
     7     4    11    1
     8     4    29    1
     9     5     6   ar
    10     6     7   ar
    11     6    30    1
    12     7     8   ar
    13     7    31    1
    14     8     9   ar
    15     8    32    1
    16     9    10   ar
    17     9    33    1
    18    10     5   ar
    19    10    34    1
    20    11    12   ar
    21    12    13   ar
    22    12    35    1
    23    13    14   ar
    24    13    36    1
    25    14    15   ar
    26    14    37    1
    27    15    16   ar
    28    15    38    1
    29    16    11   ar
    30    16    39    1
    31    17    18    2
    32    18    19    1
    33    19    20   am
    34    19    40    1
    35    20    21    2
    36    20    22    1
    37    22    23   ar
    38    23    24   ar
    39    23    41    1
    40    24    25   ar
    41    24    42    1
    42    25    26   ar
    43    25    43    1
    44    26    27   ar
    45    26    44    1
    46    27    17    1
    47    27    22   ar
@<TRIPOS>MOLECULE
*****
 44 47 0 0 0
SMALL
GASTEIGER

@<TRIPOS>ATOM
      1 O           0.9797   -1.7585   -0.2587 O.2     1  UNL11      -0.2683
      2 C           1.0206   -0.5304   -0.3620 C.2     1  UNL11       0.2695
      3 N          -0.2519    0.1207   -0.1042 N.am    1  UNL11      -0.2991
      4 C          -1.4410   -0.5803    0.2381 C.3     1  UNL11       0.0740
      5 C          -2.3062    0.2573    1.1086 C.ar    1  UNL11      -0.0228
      6 C          -2.1426    0.1675    2.4679 C.ar    1  UNL11      -0.0565
      7 C          -2.9381    0.9420    3.3070 C.ar    1  UNL11      -0.0614
      8 C          -3.8732    1.7833    2.7727 C.ar    1  UNL11      -0.0617
      9 C          -4.0076    1.8453    1.3995 C.ar    1  UNL11      -0.0614
     10 C          -3.2262    1.0830    0.5416 C.ar    1  UNL11      -0.0565
     11 C          -2.2264   -1.0390   -0.9071 C.ar    1  UNL11      -0.0228
     12 C          -2.9989   -2.1738   -0.8629 C.ar    1  UNL11      -0.0565
     13 C          -3.7262   -2.5639   -1.9943 C.ar    1  UNL11      -0.0614
     14 C          -3.6587   -1.8026   -3.1433 C.ar    1  UNL11      -0.0617
     15 C          -2.8901   -0.6589   -3.2125 C.ar    1  UNL11      -0.0614
     16 C          -2.1920   -0.3156   -2.0726 C.ar    1  UNL11      -0.0565
     17 C           2.1709    0.2559   -0.6997 C.2     1  UNL11       0.1988
     18 N           1.9899    1.4371   -1.3716 N.2     1  UNL11       0.0021
     19 N           2.9550    2.2282   -1.7276 N.am    1  UNL11      -0.0351
     20 C           4.2269    1.9279   -1.4511 C.2     1  UNL11       0.4383
     21 O           5.1859    2.6600   -1.7750 O.2     1  UNL11      -0.2116
     22 C           4.4926    0.7588   -0.7786 C.ar    1  UNL11       0.1009
     23 C           5.7690    0.3886   -0.4627 C.ar    1  UNL11      -0.0441
     24 C           6.0677   -0.7759    0.2100 C.ar    1  UNL11      -0.0608
     25 C           5.0583   -1.6229    0.5935 C.ar    1  UNL11      -0.0611
     26 C           3.7436   -1.2484    0.2719 C.ar    1  UNL11      -0.0513
     27 C           3.4508   -0.0862   -0.3992 C.ar    1  UNL11       0.0282
     28 H          -0.2587    1.1490   -0.1821 H       1  UNL11       0.1500
     29 H          -1.0950   -1.4997    0.8099 H       1  UNL11       0.0599
     30 H          -1.4207   -0.4812    2.9384 H       1  UNL11       0.0621
     31 H          -2.8389    0.8994    4.3882 H       1  UNL11       0.0618
     32 H          -4.5059    2.3976    3.4033 H       1  UNL11       0.0618
     33 H          -4.7442    2.5079    0.9757 H       1  UNL11       0.0618
     34 H          -3.3676    1.1653   -0.5304 H       1  UNL11       0.0621
     35 H          -3.0755   -2.7886    0.0143 H       1  UNL11       0.0621
     36 H          -4.3457   -3.4625   -1.9789 H       1  UNL11       0.0618
     37 H          -4.2054   -2.0612   -4.0535 H       1  UNL11       0.0618
     38 H          -2.8489   -0.0734   -4.1230 H       1  UNL11       0.0618
     39 H          -1.5868    0.5998   -2.1529 H       1  UNL11       0.0621
     40 H           2.8074    3.1411   -2.2476 H       1  UNL11       0.4829
     41 H           6.5654    1.0719   -0.7735 H       1  UNL11       0.0627
     42 H           7.0720   -1.0556    0.4522 H       1  UNL11       0.0618
     43 H           5.2277   -2.5596    1.1286 H       1  UNL11       0.0618
     44 H           2.9716   -1.9180    0.5773 H       1  UNL11       0.0624
@<TRIPOS>BOND
     1     1     2    2
     2     2     3   am
     3     2    17    1
     4     3     4    1
     5     3    28    1
     6     4     5    1
     7     4    11    1
     8     4    29    1
     9     5     6   ar
    10     6     7   ar
    11     6    30    1
    12     7     8   ar
    13     7    31    1
    14     8     9   ar
    15     8    32    1
    16     9    10   ar
    17     9    33    1
    18    10     5   ar
    19    10    34    1
    20    11    12   ar
    21    12    13   ar
    22    12    35    1
    23    13    14   ar
    24    13    36    1
    25    14    15   ar
    26    14    37    1
    27    15    16   ar
    28    15    38    1
    29    16    11   ar
    30    16    39    1
    31    17    18    2
    32    18    19    1
    33    19    20   am
    34    19    40    1
    35    20    21    2
    36    20    22    1
    37    22    23   ar
    38    23    24   ar
    39    23    41    1
    40    24    25   ar
    41    24    42    1
    42    25    26   ar
    43    25    43    1
    44    26    27   ar
    45    26    44    1
    46    27    17    1
    47    27    22   ar
