@<TRIPOS>MOLECULE
*****
 43 45 0 0 0
SMALL
GASTEIGER

@<TRIPOS>ATOM
      1 C           4.3718   -2.3208    1.1618 C.3     1  UNL11      -0.0643
      2 C           2.8915   -2.3976    0.9298 C.3     1  UNL11      -0.0407
      3 C           2.2342   -1.0473    0.9073 C.3     1  UNL11       0.0603
      4 C           0.7746   -1.1229    0.6974 C.2     1  UNL11       0.2207
      5 O          -0.0033   -1.2055    1.7075 O.2     1  UNL11      -0.2751
      6 N           0.1355   -1.1124   -0.5601 N.am    1  UNL11      -0.3090
      7 C           0.8258   -1.0395   -1.8291 C.3     1  UNL11       0.0602
      8 C           2.1455   -1.6358   -1.8081 C.2     1  UNL11       0.1319
      9 N           3.2333   -0.9083   -2.0900 N.2     1  UNL11      -0.0060
     10 N           4.4558   -1.4691   -2.0683 N.am    1  UNL11      -0.0355
     11 C           4.6596   -2.7595   -1.7708 C.2     1  UNL11       0.4383
     12 O           5.8058   -3.2847   -1.7507 O.2     1  UNL11      -0.2116
     13 C           3.5828   -3.5546   -1.4732 C.ar    1  UNL11       0.1005
     14 C           3.7242   -4.8903   -1.1586 C.ar    1  UNL11      -0.0441
     15 C           2.6156   -5.6560   -0.8653 C.ar    1  UNL11      -0.0608
     16 C           1.3599   -5.0795   -0.8877 C.ar    1  UNL11      -0.0611
     17 C           1.2559   -3.7523   -1.2038 C.ar    1  UNL11      -0.0517
     18 C           2.3287   -2.9522   -1.5021 C.ar    1  UNL11       0.0205
     19 C           2.8403   -0.1988   -0.1437 C.ar    1  UNL11      -0.0355
     20 C           2.3806    1.1115   -0.3241 C.ar    1  UNL11      -0.0578
     21 C           2.9372    1.9101   -1.2797 C.ar    1  UNL11      -0.0615
     22 C           3.9613    1.4741   -2.1001 C.ar    1  UNL11      -0.0617
     23 C           4.4244    0.2055   -1.9436 C.ar    1  UNL11      -0.0615
     24 C           3.8593   -0.6133   -0.9690 C.ar    1  UNL11      -0.0578
     25 H           4.5671   -2.3698    2.2602 H       1  UNL11       0.0230
     26 H           4.8341   -1.4195    0.7069 H       1  UNL11       0.0230
     27 H           4.8502   -3.2196    0.7261 H       1  UNL11       0.0230
     28 H           2.4692   -3.0288    1.7477 H       1  UNL11       0.0273
     29 H           2.7346   -2.9643   -0.0105 H       1  UNL11       0.0273
     30 H           2.4012   -0.5468    1.8947 H       1  UNL11       0.0443
     31 H          -0.8921   -1.1567   -0.5801 H       1  UNL11       0.1491
     32 H           0.2109   -1.6383   -2.5615 H       1  UNL11       0.0529
     33 H           0.7835    0.0284   -2.1120 H       1  UNL11       0.0529
     34 H           5.3028   -0.8950   -2.2897 H       1  UNL11       0.4829
     35 H           4.6983   -5.3549   -1.1371 H       1  UNL11       0.0627
     36 H           2.6707   -6.7071   -0.6125 H       1  UNL11       0.0618
     37 H           0.4502   -5.6207   -0.6684 H       1  UNL11       0.0618
     38 H           0.2801   -3.2916   -1.2243 H       1  UNL11       0.0624
     39 H           1.5766    1.5183    0.2883 H       1  UNL11       0.0620
     40 H           2.5833    2.9120   -1.4152 H       1  UNL11       0.0618
     41 H           4.4128    2.1028   -2.8661 H       1  UNL11       0.0618
     42 H           5.2348   -0.1656   -2.5798 H       1  UNL11       0.0618
     43 H           4.2845   -1.6033   -0.8983 H       1  UNL11       0.0620
@<TRIPOS>BOND
     1     1     2    1
     2     1    25    1
     3     1    26    1
     4     1    27    1
     5     2     3    1
     6     2    28    1
     7     2    29    1
     8     3     4    1
     9     3    19    1
    10     3    30    1
    11     4     5    2
    12     4     6   am
    13     6     7    1
    14     6    31    1
    15     7     8    1
    16     7    32    1
    17     7    33    1
    18     8     9    2
    19     9    10    1
    20    10    11   am
    21    10    34    1
    22    11    12    2
    23    11    13    1
    24    13    14   ar
    25    14    15   ar
    26    14    35    1
    27    15    16   ar
    28    15    36    1
    29    16    17   ar
    30    16    37    1
    31    17    18   ar
    32    17    38    1
    33    18     8    1
    34    18    13   ar
    35    19    20   ar
    36    20    21   ar
    37    20    39    1
    38    21    22   ar
    39    21    40    1
    40    22    23   ar
    41    22    41    1
    42    23    24   ar
    43    23    42    1
    44    24    19   ar
    45    24    43    1
@<TRIPOS>MOLECULE
*****
 43 45 0 0 0
SMALL
GASTEIGER

@<TRIPOS>ATOM
      1 C           2.6934   -3.1100   -0.4306 C.3     1  UNL11      -0.0643
      2 C           3.0183   -1.6609   -0.2172 C.3     1  UNL11      -0.0407
      3 C           2.2342   -1.0473    0.9073 C.3     1  UNL11       0.0603
      4 C           0.7746   -1.1229    0.6974 C.2     1  UNL11       0.2207
      5 O          -0.0033   -1.2055    1.7075 O.2     1  UNL11      -0.2751
      6 N           0.1355   -1.1124   -0.5601 N.am    1  UNL11      -0.3090
      7 C           0.8258   -1.0395   -1.8291 C.3     1  UNL11       0.0602
      8 C           2.0844   -0.3255   -1.7660 C.2     1  UNL11       0.1319
      9 N           3.0779   -0.7518   -0.9765 N.2     1  UNL11      -0.0060
     10 N           4.2441   -0.0834   -0.9233 N.am    1  UNL11      -0.0355
     11 C           4.4816    1.0243   -1.6386 C.2     1  UNL11       0.4383
     12 O           5.5749    1.6504   -1.5883 O.2     1  UNL11      -0.2116
     13 C           3.5008    1.5086   -2.4656 C.ar    1  UNL11       0.1005
     14 C           3.6815    2.6437   -3.2283 C.ar    1  UNL11      -0.0441
     15 C           2.6699    3.0983   -4.0476 C.ar    1  UNL11      -0.0608
     16 C           1.4720    2.4115   -4.1021 C.ar    1  UNL11      -0.0611
     17 C           1.3267    1.2896   -3.3324 C.ar    1  UNL11      -0.0517
     18 C           2.3036    0.8004   -2.5037 C.ar    1  UNL11       0.0205
     19 C           2.6323    0.3657    1.0994 C.ar    1  UNL11      -0.0355
     20 C           3.6170    0.9242    0.2752 C.ar    1  UNL11      -0.0578
     21 C           3.9859    2.2280    0.4311 C.ar    1  UNL11      -0.0615
     22 C           3.4176    3.0455    1.3906 C.ar    1  UNL11      -0.0617
     23 C           2.4591    2.5256    2.2027 C.ar    1  UNL11      -0.0615
     24 C           2.0791    1.1948    2.0470 C.ar    1  UNL11      -0.0578
     25 H           1.8573   -3.1869   -1.1668 H       1  UNL11       0.0230
     26 H           2.4534   -3.6425    0.5138 H       1  UNL11       0.0230
     27 H           3.5631   -3.6067   -0.9034 H       1  UNL11       0.0230
     28 H           2.8045   -1.1373   -1.1795 H       1  UNL11       0.0273
     29 H           4.1142   -1.5886   -0.0626 H       1  UNL11       0.0273
     30 H           2.4619   -1.6022    1.8526 H       1  UNL11       0.0443
     31 H          -0.8921   -1.1567   -0.5801 H       1  UNL11       0.1491
     32 H           1.0698   -2.1018   -2.1210 H       1  UNL11       0.0529
     33 H           0.0768   -0.6352   -2.5346 H       1  UNL11       0.0529
     34 H           5.0173   -0.4217   -0.3040 H       1  UNL11       0.4829
     35 H           4.6114    3.1911   -3.1966 H       1  UNL11       0.0627
     36 H           2.7594    3.9824   -4.6659 H       1  UNL11       0.0618
     37 H           0.6388    2.7120   -4.7217 H       1  UNL11       0.0618
     38 H           0.3954    0.7453   -3.3670 H       1  UNL11       0.0624
     39 H           4.1054    0.3359   -0.5010 H       1  UNL11       0.0620
     40 H           4.7395    2.6523   -0.2010 H       1  UNL11       0.0618
     41 H           3.7044    4.0875    1.5241 H       1  UNL11       0.0618
     42 H           1.9922    3.1507    2.9711 H       1  UNL11       0.0618
     43 H           1.3072    0.8559    2.7216 H       1  UNL11       0.0620
@<TRIPOS>BOND
     1     1     2    1
     2     1    25    1
     3     1    26    1
     4     1    27    1
     5     2     3    1
     6     2    28    1
     7     2    29    1
     8     3     4    1
     9     3    19    1
    10     3    30    1
    11     4     5    2
    12     4     6   am
    13     6     7    1
    14     6    31    1
    15     7     8    1
    16     7    32    1
    17     7    33    1
    18     8     9    2
    19     9    10    1
    20    10    11   am
    21    10    34    1
    22    11    12    2
    23    11    13    1
    24    13    14   ar
    25    14    15   ar
    26    14    35    1
    27    15    16   ar
    28    15    36    1
    29    16    17   ar
    30    16    37    1
    31    17    18   ar
    32    17    38    1
    33    18     8    1
    34    18    13   ar
    35    19    20   ar
    36    20    21   ar
    37    20    39    1
    38    21    22   ar
    39    21    40    1
    40    22    23   ar
    41    22    41    1
    42    23    24   ar
    43    23    42    1
    44    24    19   ar
    45    24    43    1
@<TRIPOS>MOLECULE
*****
 43 45 0 0 0
SMALL
GASTEIGER

@<TRIPOS>ATOM
      1 C           2.6934   -3.1100   -0.4306 C.3     1  UNL11      -0.0643
      2 C           3.0183   -1.6609   -0.2172 C.3     1  UNL11      -0.0407
      3 C           2.2342   -1.0473    0.9073 C.3     1  UNL11       0.0603
      4 C           0.7746   -1.1229    0.6974 C.2     1  UNL11       0.2207
      5 O          -0.0033   -1.2055    1.7075 O.2     1  UNL11      -0.2751
      6 N           0.1355   -1.1124   -0.5601 N.am    1  UNL11      -0.3090
      7 C           0.8258   -1.0395   -1.8291 C.3     1  UNL11       0.0602
      8 C           1.7267   -2.1486   -2.0653 C.2     1  UNL11       0.1319
      9 N           1.8701   -3.1231   -1.1587 N.2     1  UNL11      -0.0060
     10 N           2.7088   -4.1502   -1.3853 N.am    1  UNL11      -0.0355
     11 C           3.4369   -4.2623   -2.5044 C.2     1  UNL11       0.4383
     12 O           4.2229   -5.2252   -2.7162 O.2     1  UNL11      -0.2116
     13 C           3.3317   -3.2940   -3.4696 C.ar    1  UNL11       0.1005
     14 C           4.0533   -3.3500   -4.6439 C.ar    1  UNL11      -0.0441
     15 C           3.9191   -2.3558   -5.5899 C.ar    1  UNL11      -0.0608
     16 C           3.0575   -1.3008   -5.3568 C.ar    1  UNL11      -0.0611
     17 C           2.3572   -1.2766   -4.1815 C.ar    1  UNL11      -0.0517
     18 C           2.4581   -2.2417   -3.2127 C.ar    1  UNL11       0.0205
     19 C           2.6323    0.3657    1.0994 C.ar    1  UNL11      -0.0355
     20 C           3.9373    0.7646    0.7854 C.ar    1  UNL11      -0.0578
     21 C           4.3160    2.0652    0.9449 C.ar    1  UNL11      -0.0615
     22 C           3.4480    3.0336    1.4145 C.ar    1  UNL11      -0.0617
     23 C           2.1754    2.6703    1.7259 C.ar    1  UNL11      -0.0615
     24 C           1.7843    1.3434    1.5645 C.ar    1  UNL11      -0.0578
     25 H           1.8573   -3.1869   -1.1668 H       1  UNL11       0.0230
     26 H           2.4534   -3.6425    0.5138 H       1  UNL11       0.0230
     27 H           3.5631   -3.6067   -0.9034 H       1  UNL11       0.0230
     28 H           2.8045   -1.1373   -1.1795 H       1  UNL11       0.0273
     29 H           4.1142   -1.5886   -0.0626 H       1  UNL11       0.0273
     30 H           2.4619   -1.6022    1.8526 H       1  UNL11       0.0443
     31 H          -0.8921   -1.1567   -0.5801 H       1  UNL11       0.1491
     32 H           0.0308   -1.0915   -2.6281 H       1  UNL11       0.0529
     33 H           1.2849   -0.0338   -1.8428 H       1  UNL11       0.0529
     34 H           2.8166   -4.9092   -0.6724 H       1  UNL11       0.4829
     35 H           4.7303   -4.1676   -4.8405 H       1  UNL11       0.0627
     36 H           4.4611   -2.3514   -6.5269 H       1  UNL11       0.0618
     37 H           2.9045   -0.4893   -6.0543 H       1  UNL11       0.0618
     38 H           1.6815   -0.4575   -3.9889 H       1  UNL11       0.0624
     39 H           4.6718    0.0524    0.4107 H       1  UNL11       0.0620
     40 H           5.3151    2.3672    0.7038 H       1  UNL11       0.0618
     41 H           3.7395    4.0747    1.5458 H       1  UNL11       0.0618
     42 H           1.4671    3.4170    2.0999 H       1  UNL11       0.0618
     43 H           0.7576    1.1328    1.8239 H       1  UNL11       0.0620
@<TRIPOS>BOND
     1     1     2    1
     2     1    25    1
     3     1    26    1
     4     1    27    1
     5     2     3    1
     6     2    28    1
     7     2    29    1
     8     3     4    1
     9     3    19    1
    10     3    30    1
    11     4     5    2
    12     4     6   am
    13     6     7    1
    14     6    31    1
    15     7     8    1
    16     7    32    1
    17     7    33    1
    18     8     9    2
    19     9    10    1
    20    10    11   am
    21    10    34    1
    22    11    12    2
    23    11    13    1
    24    13    14   ar
    25    14    15   ar
    26    14    35    1
    27    15    16   ar
    28    15    36    1
    29    16    17   ar
    30    16    37    1
    31    17    18   ar
    32    17    38    1
    33    18     8    1
    34    18    13   ar
    35    19    20   ar
    36    20    21   ar
    37    20    39    1
    38    21    22   ar
    39    21    40    1
    40    22    23   ar
    41    22    41    1
    42    23    24   ar
    43    23    42    1
    44    24    19   ar
    45    24    43    1
@<TRIPOS>MOLECULE
*****
 43 45 0 0 0
SMALL
GASTEIGER

@<TRIPOS>ATOM
      1 C           2.4761    1.1594   -0.2451 C.3     1  UNL11      -0.0643
      2 C           2.9385   -0.2657   -0.1645 C.3     1  UNL11      -0.0407
      3 C           2.2342   -1.0473    0.9073 C.3     1  UNL11       0.0603
      4 C           0.7746   -1.1229    0.6974 C.2     1  UNL11       0.2207
      5 O          -0.0033   -1.2055    1.7075 O.2     1  UNL11      -0.2751
      6 N           0.1355   -1.1124   -0.5601 N.am    1  UNL11      -0.3090
      7 C           0.8258   -1.0395   -1.8291 C.3     1  UNL11       0.0602
      8 C           1.0343    0.3140   -2.3005 C.2     1  UNL11       0.1319
      9 N           1.7533    1.1880   -1.5856 N.2     1  UNL11      -0.0060
     10 N           1.9427    2.4435   -2.0300 N.am    1  UNL11      -0.0355
     11 C           1.4370    2.8900   -3.1876 C.2     1  UNL11       0.4383
     12 O           1.6148    4.0669   -3.6037 O.2     1  UNL11      -0.2116
     13 C           0.6916    2.0396   -3.9632 C.ar    1  UNL11       0.1005
     14 C           0.1431    2.4367   -5.1650 C.ar    1  UNL11      -0.0441
     15 C          -0.6006    1.5508   -5.9156 C.ar    1  UNL11      -0.0608
     16 C          -0.7949    0.2612   -5.4588 C.ar    1  UNL11      -0.0611
     17 C          -0.2367   -0.0992   -4.2627 C.ar    1  UNL11      -0.0517
     18 C           0.5095    0.7464   -3.4828 C.ar    1  UNL11       0.0205
     19 C           2.5113   -0.4593    2.2374 C.ar    1  UNL11      -0.0355
     20 C           1.6612    0.5304    2.7460 C.ar    1  UNL11      -0.0578
     21 C           1.8956    1.0731    3.9753 C.ar    1  UNL11      -0.0615
     22 C           2.9620    0.6810    4.7632 C.ar    1  UNL11      -0.0617
     23 C           3.8013   -0.2786    4.2907 C.ar    1  UNL11      -0.0615
     24 C           3.5657   -0.8357    3.0362 C.ar    1  UNL11      -0.0578
     25 H           3.1149    1.7836    0.4252 H       1  UNL11       0.0230
     26 H           1.3984    1.2780   -0.0051 H       1  UNL11       0.0230
     27 H           2.6516    1.5359   -1.2717 H       1  UNL11       0.0230
     28 H           4.0381   -0.2378    0.0249 H       1  UNL11       0.0273
     29 H           2.8095   -0.7110   -1.1721 H       1  UNL11       0.0273
     30 H           2.6237   -2.0969    0.9053 H       1  UNL11       0.0443
     31 H          -0.8921   -1.1567   -0.5801 H       1  UNL11       0.1491
     32 H           1.8486   -1.4859   -1.6619 H       1  UNL11       0.0529
     33 H           0.2497   -1.7012   -2.5018 H       1  UNL11       0.0529
     34 H           2.5060    3.1224   -1.4665 H       1  UNL11       0.4829
     35 H           0.2860    3.4406   -5.5352 H       1  UNL11       0.0627
     36 H          -1.0526    1.8108   -6.8643 H       1  UNL11       0.0618
     37 H          -1.3660   -0.4831   -5.9959 H       1  UNL11       0.0618
     38 H          -0.3820   -1.1038   -3.8961 H       1  UNL11       0.0624
     39 H           0.8024    0.8853    2.1773 H       1  UNL11       0.0620
     40 H           1.2433    1.8300    4.3615 H       1  UNL11       0.0618
     41 H           3.1588    1.1074    5.7458 H       1  UNL11       0.0618
     42 H           4.6538   -0.6080    4.8940 H       1  UNL11       0.0618
     43 H           4.2687   -1.5969    2.7326 H       1  UNL11       0.0620
@<TRIPOS>BOND
     1     1     2    1
     2     1    25    1
     3     1    26    1
     4     1    27    1
     5     2     3    1
     6     2    28    1
     7     2    29    1
     8     3     4    1
     9     3    19    1
    10     3    30    1
    11     4     5    2
    12     4     6   am
    13     6     7    1
    14     6    31    1
    15     7     8    1
    16     7    32    1
    17     7    33    1
    18     8     9    2
    19     9    10    1
    20    10    11   am
    21    10    34    1
    22    11    12    2
    23    11    13    1
    24    13    14   ar
    25    14    15   ar
    26    14    35    1
    27    15    16   ar
    28    15    36    1
    29    16    17   ar
    30    16    37    1
    31    17    18   ar
    32    17    38    1
    33    18     8    1
    34    18    13   ar
    35    19    20   ar
    36    20    21   ar
    37    20    39    1
    38    21    22   ar
    39    21    40    1
    40    22    23   ar
    41    22    41    1
    42    23    24   ar
    43    23    42    1
    44    24    19   ar
    45    24    43    1
@<TRIPOS>MOLECULE
*****
 43 45 0 0 0
SMALL
GASTEIGER

@<TRIPOS>ATOM
      1 C           4.4576   -2.1143    0.4904 C.3     1  UNL11      -0.0643
      2 C           2.9765   -2.1817    0.2608 C.3     1  UNL11      -0.0407
      3 C           2.2342   -1.0473    0.9073 C.3     1  UNL11       0.0603
      4 C           0.7746   -1.1229    0.6974 C.2     1  UNL11       0.2207
      5 O          -0.0033   -1.2055    1.7075 O.2     1  UNL11      -0.2751
      6 N           0.1355   -1.1124   -0.5601 N.am    1  UNL11      -0.3090
      7 C           0.8258   -1.0395   -1.8291 C.3     1  UNL11       0.0602
      8 C           1.7267   -2.1486   -2.0653 C.2     1  UNL11       0.1319
      9 N           1.8701   -3.1231   -1.1587 N.2     1  UNL11      -0.0060
     10 N           2.7088   -4.1502   -1.3853 N.am    1  UNL11      -0.0355
     11 C           3.4369   -4.2623   -2.5044 C.2     1  UNL11       0.4383
     12 O           4.2229   -5.2252   -2.7162 O.2     1  UNL11      -0.2116
     13 C           3.3317   -3.2940   -3.4696 C.ar    1  UNL11       0.1005
     14 C           4.0533   -3.3500   -4.6439 C.ar    1  UNL11      -0.0441
     15 C           3.9191   -2.3558   -5.5899 C.ar    1  UNL11      -0.0608
     16 C           3.0575   -1.3008   -5.3568 C.ar    1  UNL11      -0.0611
     17 C           2.3572   -1.2766   -4.1815 C.ar    1  UNL11      -0.0517
     18 C           2.4581   -2.2417   -3.2127 C.ar    1  UNL11       0.0205
     19 C           2.7385    0.2499    0.4026 C.ar    1  UNL11      -0.0355
     20 C           1.8625    1.1238   -0.2531 C.ar    1  UNL11      -0.0578
     21 C           2.3086    2.3280   -0.7128 C.ar    1  UNL11      -0.0615
     22 C           3.6204    2.7366   -0.5573 C.ar    1  UNL11      -0.0617
     23 C           4.4896    1.9051    0.0763 C.ar    1  UNL11      -0.0615
     24 C           4.0384    0.6747    0.5475 C.ar    1  UNL11      -0.0578
     25 H           4.7035   -2.6779    1.4225 H       1  UNL11       0.0230
     26 H           4.8412   -1.0730    0.5322 H       1  UNL11       0.0230
     27 H           4.9728   -2.6462   -0.3330 H       1  UNL11       0.0230
     28 H           2.6314   -3.1622    0.6675 H       1  UNL11       0.0273
     29 H           2.8151   -2.2276   -0.8355 H       1  UNL11       0.0273
     30 H           2.4119   -1.0811    2.0121 H       1  UNL11       0.0443
     31 H          -0.8921   -1.1567   -0.5801 H       1  UNL11       0.1491
     32 H           0.0308   -1.0915   -2.6281 H       1  UNL11       0.0529
     33 H           1.2849   -0.0338   -1.8428 H       1  UNL11       0.0529
     34 H           2.8166   -4.9092   -0.6724 H       1  UNL11       0.4829
     35 H           4.7303   -4.1676   -4.8405 H       1  UNL11       0.0627
     36 H           4.4611   -2.3514   -6.5269 H       1  UNL11       0.0618
     37 H           2.9045   -0.4893   -6.0543 H       1  UNL11       0.0618
     38 H           1.6815   -0.4575   -3.9889 H       1  UNL11       0.0624
     39 H           0.8159    0.8642   -0.4090 H       1  UNL11       0.0620
     40 H           1.6360    2.9943   -1.2139 H       1  UNL11       0.0618
     41 H           3.9874    3.6955   -0.9203 H       1  UNL11       0.0618
     42 H           5.5343    2.2036    0.2131 H       1  UNL11       0.0618
     43 H           4.7833    0.0733    1.0469 H       1  UNL11       0.0620
@<TRIPOS>BOND
     1     1     2    1
     2     1    25    1
     3     1    26    1
     4     1    27    1
     5     2     3    1
     6     2    28    1
     7     2    29    1
     8     3     4    1
     9     3    19    1
    10     3    30    1
    11     4     5    2
    12     4     6   am
    13     6     7    1
    14     6    31    1
    15     7     8    1
    16     7    32    1
    17     7    33    1
    18     8     9    2
    19     9    10    1
    20    10    11   am
    21    10    34    1
    22    11    12    2
    23    11    13    1
    24    13    14   ar
    25    14    15   ar
    26    14    35    1
    27    15    16   ar
    28    15    36    1
    29    16    17   ar
    30    16    37    1
    31    17    18   ar
    32    17    38    1
    33    18     8    1
    34    18    13   ar
    35    19    20   ar
    36    20    21   ar
    37    20    39    1
    38    21    22   ar
    39    21    40    1
    40    22    23   ar
    41    22    41    1
    42    23    24   ar
    43    23    42    1
    44    24    19   ar
    45    24    43    1
@<TRIPOS>MOLECULE
*****
 43 45 0 0 0
SMALL
GASTEIGER

@<TRIPOS>ATOM
      1 C           2.2845    1.4523    0.9822 C.3     1  UNL11      -0.0643
      2 C           2.8397    0.2095    0.3510 C.3     1  UNL11      -0.0407
      3 C           2.2342   -1.0473    0.9073 C.3     1  UNL11       0.0603
      4 C           0.7746   -1.1229    0.6974 C.2     1  UNL11       0.2207
      5 O          -0.0033   -1.2055    1.7075 O.2     1  UNL11      -0.2751
      6 N           0.1355   -1.1124   -0.5601 N.am    1  UNL11      -0.3090
      7 C           0.8258   -1.0395   -1.8291 C.3     1  UNL11       0.0602
      8 C           1.6445    0.1459   -1.9782 C.2     1  UNL11       0.1319
      9 N           2.9287    0.1467   -1.6000 N.2     1  UNL11      -0.0060
     10 N           3.6828    1.2515   -1.7417 N.am    1  UNL11      -0.0355
     11 C           3.2104    2.3943   -2.2574 C.2     1  UNL11       0.4383
     12 O           3.9178    3.4296   -2.3900 O.2     1  UNL11      -0.2116
     13 C           1.9017    2.4535   -2.6627 C.ar    1  UNL11       0.1005
     14 C           1.3538    3.5990   -3.2016 C.ar    1  UNL11      -0.0441
     15 C           0.0329    3.6177   -3.5971 C.ar    1  UNL11      -0.0608
     16 C          -0.7415    2.4826   -3.4513 C.ar    1  UNL11      -0.0611
     17 C          -0.1662    1.3639   -2.9132 C.ar    1  UNL11      -0.0517
     18 C           1.1416    1.2985   -2.5062 C.ar    1  UNL11       0.0205
     19 C           2.5312   -1.1639    2.3530 C.ar    1  UNL11      -0.0355
     20 C           3.2491   -2.2702    2.8238 C.ar    1  UNL11      -0.0578
     21 C           3.5416   -2.3859    4.1510 C.ar    1  UNL11      -0.0615
     22 C           3.1520   -1.4364    5.0775 C.ar    1  UNL11      -0.0617
     23 C           2.4539   -0.3532    4.6441 C.ar    1  UNL11      -0.0615
     24 C           2.1531   -0.2308    3.2899 C.ar    1  UNL11      -0.0578
     25 H           2.9109    1.7170    1.8679 H       1  UNL11       0.0230
     26 H           1.2129    1.3554    1.2569 H       1  UNL11       0.0230
     27 H           2.3905    2.2941    0.2705 H       1  UNL11       0.0230
     28 H           3.9426    0.2260    0.5222 H       1  UNL11       0.0273
     29 H           2.6954    0.3041   -0.7446 H       1  UNL11       0.0273
     30 H           2.6893   -1.9289    0.3886 H       1  UNL11       0.0443
     31 H          -0.8921   -1.1567   -0.5801 H       1  UNL11       0.1491
     32 H           1.5261   -1.9237   -1.8625 H       1  UNL11       0.0529
     33 H           0.0346   -1.1779   -2.5887 H       1  UNL11       0.0529
     34 H           4.6865    1.2459   -1.4441 H       1  UNL11       0.4829
     35 H           1.9459    4.4937   -3.3218 H       1  UNL11       0.0627
     36 H          -0.4458    4.4891   -4.0252 H       1  UNL11       0.0618
     37 H          -1.7818    2.4281   -3.7401 H       1  UNL11       0.0618
     38 H          -0.7616    0.4716   -2.7947 H       1  UNL11       0.0624
     39 H           3.5865   -3.0550    2.1476 H       1  UNL11       0.0620
     40 H           4.0910   -3.2335    4.5080 H       1  UNL11       0.0618
     41 H           3.3799   -1.5187    6.1393 H       1  UNL11       0.0618
     42 H           2.1329    0.4141    5.3565 H       1  UNL11       0.0618
     43 H           1.6044    0.6592    3.0202 H       1  UNL11       0.0620
@<TRIPOS>BOND
     1     1     2    1
     2     1    25    1
     3     1    26    1
     4     1    27    1
     5     2     3    1
     6     2    28    1
     7     2    29    1
     8     3     4    1
     9     3    19    1
    10     3    30    1
    11     4     5    2
    12     4     6   am
    13     6     7    1
    14     6    31    1
    15     7     8    1
    16     7    32    1
    17     7    33    1
    18     8     9    2
    19     9    10    1
    20    10    11   am
    21    10    34    1
    22    11    12    2
    23    11    13    1
    24    13    14   ar
    25    14    15   ar
    26    14    35    1
    27    15    16   ar
    28    15    36    1
    29    16    17   ar
    30    16    37    1
    31    17    18   ar
    32    17    38    1
    33    18     8    1
    34    18    13   ar
    35    19    20   ar
    36    20    21   ar
    37    20    39    1
    38    21    22   ar
    39    21    40    1
    40    22    23   ar
    41    22    41    1
    42    23    24   ar
    43    23    42    1
    44    24    19   ar
    45    24    43    1
@<TRIPOS>MOLECULE
*****
 43 45 0 0 0
SMALL
GASTEIGER

@<TRIPOS>ATOM
      1 C           2.0445   -1.2057    3.3962 C.3     1  UNL11      -0.0643
      2 C           2.6821   -1.7548    2.1541 C.3     1  UNL11      -0.0407
      3 C           2.2342   -1.0473    0.9073 C.3     1  UNL11       0.0603
      4 C           0.7746   -1.1229    0.6974 C.2     1  UNL11       0.2207
      5 O          -0.0033   -1.2055    1.7075 O.2     1  UNL11      -0.2751
      6 N           0.1355   -1.1124   -0.5601 N.am    1  UNL11      -0.3090
      7 C           0.8258   -1.0395   -1.8291 C.3     1  UNL11       0.0602
      8 C           1.0343    0.3140   -2.3005 C.2     1  UNL11       0.1319
      9 N           2.1434    0.9911   -1.9787 N.2     1  UNL11      -0.0060
     10 N           2.3300    2.2478   -2.4204 N.am    1  UNL11      -0.0355
     11 C           1.4409    2.8880   -3.1916 C.2     1  UNL11       0.4383
     12 O           1.6163    4.0661   -3.6054 O.2     1  UNL11      -0.2116
     13 C           0.2854    2.2447   -3.5540 C.ar    1  UNL11       0.1005
     14 C          -0.6701    2.8473   -4.3458 C.ar    1  UNL11      -0.0441
     15 C          -1.8191    2.1660   -4.6880 C.ar    1  UNL11      -0.0608
     16 C          -2.0105    0.8750   -4.2340 C.ar    1  UNL11      -0.0611
     17 C          -1.0426    0.3077   -3.4507 C.ar    1  UNL11      -0.0517
     18 C           0.1148    0.9457   -3.0850 C.ar    1  UNL11       0.0205
     19 C           2.9318   -1.6005   -0.2756 C.ar    1  UNL11      -0.0355
     20 C           2.1856   -2.1766   -1.3110 C.ar    1  UNL11      -0.0578
     21 C           2.8125   -2.6793   -2.4131 C.ar    1  UNL11      -0.0615
     22 C           4.1870   -2.6456   -2.5592 C.ar    1  UNL11      -0.0617
     23 C           4.9329   -2.0910   -1.5669 C.ar    1  UNL11      -0.0615
     24 C           4.2970   -1.5762   -0.4399 C.ar    1  UNL11      -0.0578
     25 H           1.0991   -1.7663    3.5937 H       1  UNL11       0.0230
     26 H           1.8639   -0.1114    3.3414 H       1  UNL11       0.0230
     27 H           2.7068   -1.4102    4.2599 H       1  UNL11       0.0230
     28 H           2.4198   -2.8388    2.1090 H       1  UNL11       0.0273
     29 H           3.7806   -1.7084    2.2999 H       1  UNL11       0.0273
     30 H           2.5010    0.0368    0.9904 H       1  UNL11       0.0443
     31 H          -0.8921   -1.1567   -0.5801 H       1  UNL11       0.1491
     32 H           1.8486   -1.4859   -1.6619 H       1  UNL11       0.0529
     33 H           0.2497   -1.7012   -2.5018 H       1  UNL11       0.0529
     34 H           3.1994    2.7722   -2.1653 H       1  UNL11       0.4829
     35 H          -0.5351    3.8552   -4.7080 H       1  UNL11       0.0627
     36 H          -2.5994    2.5918   -5.3057 H       1  UNL11       0.0618
     37 H          -2.8863    0.2846   -4.4641 H       1  UNL11       0.0618
     38 H          -1.1815   -0.7001   -3.0905 H       1  UNL11       0.0624
     39 H           1.0988   -2.2355   -1.2600 H       1  UNL11       0.0620
     40 H           2.2387   -3.1193   -3.2035 H       1  UNL11       0.0618
     41 H           4.6980   -3.0439   -3.4345 H       1  UNL11       0.0618
     42 H           6.0235   -2.0511   -1.6567 H       1  UNL11       0.0618
     43 H           4.9537   -1.1448    0.3007 H       1  UNL11       0.0620
@<TRIPOS>BOND
     1     1     2    1
     2     1    25    1
     3     1    26    1
     4     1    27    1
     5     2     3    1
     6     2    28    1
     7     2    29    1
     8     3     4    1
     9     3    19    1
    10     3    30    1
    11     4     5    2
    12     4     6   am
    13     6     7    1
    14     6    31    1
    15     7     8    1
    16     7    32    1
    17     7    33    1
    18     8     9    2
    19     9    10    1
    20    10    11   am
    21    10    34    1
    22    11    12    2
    23    11    13    1
    24    13    14   ar
    25    14    15   ar
    26    14    35    1
    27    15    16   ar
    28    15    36    1
    29    16    17   ar
    30    16    37    1
    31    17    18   ar
    32    17    38    1
    33    18     8    1
    34    18    13   ar
    35    19    20   ar
    36    20    21   ar
    37    20    39    1
    38    21    22   ar
    39    21    40    1
    40    22    23   ar
    41    22    41    1
    42    23    24   ar
    43    23    42    1
    44    24    19   ar
    45    24    43    1
@<TRIPOS>MOLECULE
*****
 43 45 0 0 0
SMALL
GASTEIGER

@<TRIPOS>ATOM
      1 C           2.7927   -2.2247   -1.2276 C.3     1  UNL11      -0.0643
      2 C           2.9765   -2.1817    0.2608 C.3     1  UNL11      -0.0407
      3 C           2.2342   -1.0473    0.9073 C.3     1  UNL11       0.0603
      4 C           0.7746   -1.1229    0.6974 C.2     1  UNL11       0.2207
      5 O          -0.0033   -1.2055    1.7075 O.2     1  UNL11      -0.2751
      6 N           0.1355   -1.1124   -0.5601 N.am    1  UNL11      -0.3090
      7 C           0.8258   -1.0395   -1.8291 C.3     1  UNL11       0.0602
      8 C          -0.0615   -1.0278   -2.9737 C.2     1  UNL11       0.1319
      9 N          -0.9095   -2.0394   -3.1967 N.2     1  UNL11      -0.0060
     10 N          -1.7307   -2.0215   -4.2619 N.am    1  UNL11      -0.0355
     11 C          -1.7532   -1.0158   -5.1469 C.2     1  UNL11       0.4383
     12 O          -2.5232   -0.9995   -6.1453 O.2     1  UNL11      -0.2116
     13 C          -0.9067    0.0484   -4.9704 C.ar    1  UNL11       0.1005
     14 C          -0.8803    1.1152   -5.8447 C.ar    1  UNL11      -0.0441
     15 C          -0.0138    2.1665   -5.6318 C.ar    1  UNL11      -0.0608
     16 C           0.8297    2.1477   -4.5375 C.ar    1  UNL11      -0.0611
     17 C           0.7773    1.0743   -3.6906 C.ar    1  UNL11      -0.0517
     18 C          -0.0669    0.0073   -3.8617 C.ar    1  UNL11       0.0205
     19 C           2.7385    0.2499    0.4026 C.ar    1  UNL11      -0.0355
     20 C           2.1888    1.4419    0.8905 C.ar    1  UNL11      -0.0578
     21 C           2.6511    2.6453    0.4449 C.ar    1  UNL11      -0.0615
     22 C           3.6640    2.7455   -0.4910 C.ar    1  UNL11      -0.0617
     23 C           4.2134    1.6017   -0.9793 C.ar    1  UNL11      -0.0615
     24 C           3.7447    0.3707   -0.5270 C.ar    1  UNL11      -0.0578
     25 H           3.5978   -1.6177   -1.7075 H       1  UNL11       0.0230
     26 H           1.7843   -1.8879   -1.5481 H       1  UNL11       0.0230
     27 H           2.9442   -3.2643   -1.5778 H       1  UNL11       0.0230
     28 H           4.0734   -2.0934    0.4479 H       1  UNL11       0.0273
     29 H           2.6737   -3.1717    0.6587 H       1  UNL11       0.0273
     30 H           2.4119   -1.0811    2.0121 H       1  UNL11       0.0443
     31 H          -0.8921   -1.1567   -0.5801 H       1  UNL11       0.1491
     32 H           1.3773   -0.0551   -1.8361 H       1  UNL11       0.0529
     33 H           1.5615   -1.8641   -1.7975 H       1  UNL11       0.0529
     34 H          -2.3916   -2.8155   -4.4310 H       1  UNL11       0.4829
     35 H          -1.5329    1.1443   -6.7041 H       1  UNL11       0.0627
     36 H           0.0472    3.0267   -6.2862 H       1  UNL11       0.0618
     37 H           1.5323    2.9374   -4.3112 H       1  UNL11       0.0618
     38 H           1.4315    1.0490   -2.8327 H       1  UNL11       0.0624
     39 H           1.3881    1.4348    1.6292 H       1  UNL11       0.0620
     40 H           2.2285    3.5554    0.8201 H       1  UNL11       0.0618
     41 H           4.0407    3.7007   -0.8538 H       1  UNL11       0.0618
     42 H           5.0172    1.6520   -1.7213 H       1  UNL11       0.0618
     43 H           4.2348   -0.4918   -0.9533 H       1  UNL11       0.0620
@<TRIPOS>BOND
     1     1     2    1
     2     1    25    1
     3     1    26    1
     4     1    27    1
     5     2     3    1
     6     2    28    1
     7     2    29    1
     8     3     4    1
     9     3    19    1
    10     3    30    1
    11     4     5    2
    12     4     6   am
    13     6     7    1
    14     6    31    1
    15     7     8    1
    16     7    32    1
    17     7    33    1
    18     8     9    2
    19     9    10    1
    20    10    11   am
    21    10    34    1
    22    11    12    2
    23    11    13    1
    24    13    14   ar
    25    14    15   ar
    26    14    35    1
    27    15    16   ar
    28    15    36    1
    29    16    17   ar
    30    16    37    1
    31    17    18   ar
    32    17    38    1
    33    18     8    1
    34    18    13   ar
    35    19    20   ar
    36    20    21   ar
    37    20    39    1
    38    21    22   ar
    39    21    40    1
    40    22    23   ar
    41    22    41    1
    42    23    24   ar
    43    23    42    1
    44    24    19   ar
    45    24    43    1
@<TRIPOS>MOLECULE
*****
 43 45 0 0 0
SMALL
GASTEIGER

@<TRIPOS>ATOM
      1 C           2.5426   -3.5255    0.7677 C.3     1  UNL11      -0.0643
      2 C           2.9765   -2.1817    0.2608 C.3     1  UNL11      -0.0407
      3 C           2.2342   -1.0473    0.9073 C.3     1  UNL11       0.0603
      4 C           0.7746   -1.1229    0.6974 C.2     1  UNL11       0.2207
      5 O          -0.0033   -1.2055    1.7075 O.2     1  UNL11      -0.2751
      6 N           0.1355   -1.1124   -0.5601 N.am    1  UNL11      -0.3090
      7 C           0.8258   -1.0395   -1.8291 C.3     1  UNL11       0.0602
      8 C          -0.0615   -1.0278   -2.9737 C.2     1  UNL11       0.1319
      9 N          -1.2500   -1.6423   -2.9287 N.2     1  UNL11      -0.0060
     10 N          -2.0688   -1.6271   -3.9958 N.am    1  UNL11      -0.0355
     11 C          -1.7566   -1.0117   -5.1443 C.2     1  UNL11       0.4383
     12 O          -2.5245   -0.9978   -6.1443 O.2     1  UNL11      -0.2116
     13 C          -0.5521   -0.3649   -5.2496 C.ar    1  UNL11       0.1005
     14 C          -0.1704    0.2876   -6.4035 C.ar    1  UNL11      -0.0441
     15 C           1.0499    0.9263   -6.4691 C.ar    1  UNL11      -0.0608
     16 C           1.8908    0.9105   -5.3727 C.ar    1  UNL11      -0.0611
     17 C           1.4808    0.2540   -4.2443 C.ar    1  UNL11      -0.0517
     18 C           0.2777   -0.3945   -4.1329 C.ar    1  UNL11       0.0205
     19 C           2.7385    0.2499    0.4026 C.ar    1  UNL11      -0.0355
     20 C           2.6441    0.5436   -0.9633 C.ar    1  UNL11      -0.0578
     21 C           3.0926    1.7395   -1.4422 C.ar    1  UNL11      -0.0615
     22 C           3.6508    2.7005   -0.6196 C.ar    1  UNL11      -0.0617
     23 C           3.7530    2.4382    0.7105 C.ar    1  UNL11      -0.0615
     24 C           3.2962    1.2186    1.2039 C.ar    1  UNL11      -0.0578
     25 H           1.7081   -3.8997    0.1270 H       1  UNL11       0.0230
     26 H           2.2558   -3.5104    1.8404 H       1  UNL11       0.0230
     27 H           3.3747   -4.2443    0.6361 H       1  UNL11       0.0230
     28 H           2.8104   -2.1843   -0.8429 H       1  UNL11       0.0273
     29 H           4.0736   -2.1128    0.4082 H       1  UNL11       0.0273
     30 H           2.4119   -1.0811    2.0121 H       1  UNL11       0.0443
     31 H          -0.8921   -1.1567   -0.5801 H       1  UNL11       0.1491
     32 H           1.3773   -0.0551   -1.8361 H       1  UNL11       0.0529
     33 H           1.5615   -1.8641   -1.7975 H       1  UNL11       0.0529
     34 H          -2.9970   -2.1095   -3.9545 H       1  UNL11       0.4829
     35 H          -0.8162    0.3087   -7.2682 H       1  UNL11       0.0627
     36 H           1.3975    1.4522   -7.3491 H       1  UNL11       0.0618
     37 H           2.8595    1.3900   -5.3558 H       1  UNL11       0.0618
     38 H           2.1295    0.2351   -3.3820 H       1  UNL11       0.0624
     39 H           2.2148   -0.1690   -1.6668 H       1  UNL11       0.0620
     40 H           3.0190    1.9611   -2.4876 H       1  UNL11       0.0618
     41 H           4.0122    3.6584   -0.9910 H       1  UNL11       0.0618
     42 H           4.1910    3.1816    1.3847 H       1  UNL11       0.0618
     43 H           3.4027    1.0859    2.2701 H       1  UNL11       0.0620
@<TRIPOS>BOND
     1     1     2    1
     2     1    25    1
     3     1    26    1
     4     1    27    1
     5     2     3    1
     6     2    28    1
     7     2    29    1
     8     3     4    1
     9     3    19    1
    10     3    30    1
    11     4     5    2
    12     4     6   am
    13     6     7    1
    14     6    31    1
    15     7     8    1
    16     7    32    1
    17     7    33    1
    18     8     9    2
    19     9    10    1
    20    10    11   am
    21    10    34    1
    22    11    12    2
    23    11    13    1
    24    13    14   ar
    25    14    15   ar
    26    14    35    1
    27    15    16   ar
    28    15    36    1
    29    16    17   ar
    30    16    37    1
    31    17    18   ar
    32    17    38    1
    33    18     8    1
    34    18    13   ar
    35    19    20   ar
    36    20    21   ar
    37    20    39    1
    38    21    22   ar
    39    21    40    1
    40    22    23   ar
    41    22    41    1
    42    23    24   ar
    43    23    42    1
    44    24    19   ar
    45    24    43    1
@<TRIPOS>MOLECULE
*****
 43 45 0 0 0
SMALL
GASTEIGER

@<TRIPOS>ATOM
      1 C           4.3255    0.2768    0.5481 C.3     1  UNL11      -0.0643
      2 C           2.8397    0.2095    0.3510 C.3     1  UNL11      -0.0407
      3 C           2.2342   -1.0473    0.9073 C.3     1  UNL11       0.0603
      4 C           0.7746   -1.1229    0.6974 C.2     1  UNL11       0.2207
      5 O          -0.0033   -1.2055    1.7075 O.2     1  UNL11      -0.2751
      6 N           0.1355   -1.1124   -0.5601 N.am    1  UNL11      -0.3090
      7 C           0.8258   -1.0395   -1.8291 C.3     1  UNL11       0.0602
      8 C           1.0343    0.3140   -2.3005 C.2     1  UNL11       0.1319
      9 N           0.5249    0.7210   -3.4697 N.2     1  UNL11      -0.0060
     10 N           0.7226    1.9797   -3.9009 N.am    1  UNL11      -0.0355
     11 C           1.4244    2.8854   -3.2064 C.2     1  UNL11       0.4383
     12 O           1.6094    4.0652   -3.6111 O.2     1  UNL11      -0.2116
     13 C           1.9704    2.5261   -2.0010 C.ar    1  UNL11       0.1005
     14 C           2.7033    3.4106   -1.2370 C.ar    1  UNL11      -0.0441
     15 C           3.2360    3.0100   -0.0299 C.ar    1  UNL11      -0.0608
     16 C           3.0327    1.7168    0.4128 C.ar    1  UNL11      -0.0611
     17 C           2.3009    0.8658   -0.3699 C.ar    1  UNL11      -0.0517
     18 C           1.7524    1.2192   -1.5760 C.ar    1  UNL11       0.0205
     19 C           2.5312   -1.1639    2.3530 C.ar    1  UNL11      -0.0355
     20 C           2.0778   -0.1739    3.2335 C.ar    1  UNL11      -0.0578
     21 C           2.3323   -0.2732    4.5698 C.ar    1  UNL11      -0.0615
     22 C           3.0359   -1.3340    5.1097 C.ar    1  UNL11      -0.0617
     23 C           3.4863   -2.3077    4.2745 C.ar    1  UNL11      -0.0615
     24 C           3.2285   -2.2106    2.9093 C.ar    1  UNL11      -0.0578
     25 H           4.8274   -0.1824   -0.3374 H       1  UNL11       0.0230
     26 H           4.6575   -0.1987    1.4951 H       1  UNL11       0.0230
     27 H           4.6381    1.3392    0.5594 H       1  UNL11       0.0230
     28 H           2.6564    0.2836   -0.7476 H       1  UNL11       0.0273
     29 H           2.4063    1.1268    0.7992 H       1  UNL11       0.0273
     30 H           2.6893   -1.9289    0.3886 H       1  UNL11       0.0443
     31 H          -0.8921   -1.1567   -0.5801 H       1  UNL11       0.1491
     32 H           1.8486   -1.4859   -1.6619 H       1  UNL11       0.0529
     33 H           0.2497   -1.7012   -2.5018 H       1  UNL11       0.0529
     34 H           0.3218    2.2921   -4.8162 H       1  UNL11       0.4829
     35 H           2.8709    4.4239   -1.5693 H       1  UNL11       0.0627
     36 H           3.8181    3.6631    0.6075 H       1  UNL11       0.0618
     37 H           3.4210    1.3374    1.3475 H       1  UNL11       0.0618
     38 H           2.1358   -0.1465   -0.0341 H       1  UNL11       0.0624
     39 H           1.5173    0.6887    2.8746 H       1  UNL11       0.0620
     40 H           1.9840    0.4858    5.2408 H       1  UNL11       0.0618
     41 H           3.2449   -1.4234    6.1747 H       1  UNL11       0.0618
     42 H           4.0462   -3.1592    4.6752 H       1  UNL11       0.0618
     43 H           3.6097   -3.0247    2.3112 H       1  UNL11       0.0620
@<TRIPOS>BOND
     1     1     2    1
     2     1    25    1
     3     1    26    1
     4     1    27    1
     5     2     3    1
     6     2    28    1
     7     2    29    1
     8     3     4    1
     9     3    19    1
    10     3    30    1
    11     4     5    2
    12     4     6   am
    13     6     7    1
    14     6    31    1
    15     7     8    1
    16     7    32    1
    17     7    33    1
    18     8     9    2
    19     9    10    1
    20    10    11   am
    21    10    34    1
    22    11    12    2
    23    11    13    1
    24    13    14   ar
    25    14    15   ar
    26    14    35    1
    27    15    16   ar
    28    15    36    1
    29    16    17   ar
    30    16    37    1
    31    17    18   ar
    32    17    38    1
    33    18     8    1
    34    18    13   ar
    35    19    20   ar
    36    20    21   ar
    37    20    39    1
    38    21    22   ar
    39    21    40    1
    40    22    23   ar
    41    22    41    1
    42    23    24   ar
    43    23    42    1
    44    24    19   ar
    45    24    43    1
@<TRIPOS>MOLECULE
*****
 43 45 0 0 0
SMALL
GASTEIGER

@<TRIPOS>ATOM
      1 C           4.1630   -1.6615    2.3765 C.3     1  UNL11      -0.0643
      2 C           2.6821   -1.7548    2.1541 C.3     1  UNL11      -0.0407
      3 C           2.2342   -1.0473    0.9073 C.3     1  UNL11       0.0603
      4 C           0.7746   -1.1229    0.6974 C.2     1  UNL11       0.2207
      5 O          -0.0033   -1.2055    1.7075 O.2     1  UNL11      -0.2751
      6 N           0.1355   -1.1124   -0.5601 N.am    1  UNL11      -0.3090
      7 C           0.8258   -1.0395   -1.8291 C.3     1  UNL11       0.0602
      8 C           1.0343    0.3140   -2.3005 C.2     1  UNL11       0.1319
      9 N           1.6481    0.5490   -3.4667 N.2     1  UNL11      -0.0060
     10 N           1.8380    1.8089   -3.8981 N.am    1  UNL11      -0.0355
     11 C           1.4357    2.8836   -3.2065 C.2     1  UNL11       0.4383
     12 O           1.6140    4.0644   -3.6113 O.2     1  UNL11      -0.2116
     13 C           0.8007    2.7051   -2.0043 C.ar    1  UNL11       0.1005
     14 C           0.3617    3.7689   -1.2436 C.ar    1  UNL11      -0.0441
     15 C          -0.2727    3.5469   -0.0397 C.ar    1  UNL11      -0.0608
     16 C          -0.4676    2.2525    0.4032 C.ar    1  UNL11      -0.0611
     17 C          -0.0197    1.2210   -0.3763 C.ar    1  UNL11      -0.0517
     18 C           0.6157    1.3931   -1.5791 C.ar    1  UNL11       0.0205
     19 C           2.9318   -1.6005   -0.2756 C.ar    1  UNL11      -0.0355
     20 C           2.1856   -2.1766   -1.3110 C.ar    1  UNL11      -0.0578
     21 C           2.8125   -2.6793   -2.4131 C.ar    1  UNL11      -0.0615
     22 C           4.1870   -2.6456   -2.5592 C.ar    1  UNL11      -0.0617
     23 C           4.9329   -2.0910   -1.5669 C.ar    1  UNL11      -0.0615
     24 C           4.2970   -1.5762   -0.4399 C.ar    1  UNL11      -0.0578
     25 H           4.3785   -0.7537    2.9901 H       1  UNL11       0.0230
     26 H           4.7426   -1.6585    1.4293 H       1  UNL11       0.0230
     27 H           4.4894   -2.5267    2.9860 H       1  UNL11       0.0230
     28 H           2.1923   -1.3149    3.0555 H       1  UNL11       0.0273
     29 H           2.4167   -2.8317    2.1526 H       1  UNL11       0.0273
     30 H           2.5010    0.0368    0.9904 H       1  UNL11       0.0443
     31 H          -0.8921   -1.1567   -0.5801 H       1  UNL11       0.1491
     32 H           1.8486   -1.4859   -1.6619 H       1  UNL11       0.0529
     33 H           0.2497   -1.7012   -2.5018 H       1  UNL11       0.0529
     34 H           2.3188    1.9864   -4.8109 H       1  UNL11       0.4829
     35 H           0.5067    4.7857   -1.5760 H       1  UNL11       0.0627
     36 H          -0.6362    4.3448    0.5952 H       1  UNL11       0.0618
     37 H          -0.9567    2.0074    1.3355 H       1  UNL11       0.0618
     38 H          -0.1666    0.2060   -0.0403 H       1  UNL11       0.0624
     39 H           1.0988   -2.2355   -1.2600 H       1  UNL11       0.0620
     40 H           2.2387   -3.1193   -3.2035 H       1  UNL11       0.0618
     41 H           4.6980   -3.0439   -3.4345 H       1  UNL11       0.0618
     42 H           6.0235   -2.0511   -1.6567 H       1  UNL11       0.0618
     43 H           4.9537   -1.1448    0.3007 H       1  UNL11       0.0620
@<TRIPOS>BOND
     1     1     2    1
     2     1    25    1
     3     1    26    1
     4     1    27    1
     5     2     3    1
     6     2    28    1
     7     2    29    1
     8     3     4    1
     9     3    19    1
    10     3    30    1
    11     4     5    2
    12     4     6   am
    13     6     7    1
    14     6    31    1
    15     7     8    1
    16     7    32    1
    17     7    33    1
    18     8     9    2
    19     9    10    1
    20    10    11   am
    21    10    34    1
    22    11    12    2
    23    11    13    1
    24    13    14   ar
    25    14    15   ar
    26    14    35    1
    27    15    16   ar
    28    15    36    1
    29    16    17   ar
    30    16    37    1
    31    17    18   ar
    32    17    38    1
    33    18     8    1
    34    18    13   ar
    35    19    20   ar
    36    20    21   ar
    37    20    39    1
    38    21    22   ar
    39    21    40    1
    40    22    23   ar
    41    22    41    1
    42    23    24   ar
    43    23    42    1
    44    24    19   ar
    45    24    43    1
@<TRIPOS>MOLECULE
*****
 43 45 0 0 0
SMALL
GASTEIGER

@<TRIPOS>ATOM
      1 C           2.4337    1.1981   -0.1763 C.3     1  UNL11      -0.0643
      2 C           2.7335    0.3635    1.0339 C.3     1  UNL11      -0.0407
      3 C           2.2342   -1.0473    0.9073 C.3     1  UNL11       0.0603
      4 C           0.7746   -1.1229    0.6974 C.2     1  UNL11       0.2207
      5 O          -0.0033   -1.2055    1.7075 O.2     1  UNL11      -0.2751
      6 N           0.1355   -1.1124   -0.5601 N.am    1  UNL11      -0.3090
      7 C          -1.2962   -1.1878   -0.7519 C.3     1  UNL11       0.0602
      8 C          -1.9469    0.1057   -0.7872 C.2     1  UNL11       0.1319
      9 N          -2.8943    0.4233    0.1036 N.2     1  UNL11      -0.0060
     10 N          -3.4941    1.6267    0.0646 N.am    1  UNL11      -0.0355
     11 C          -3.1904    2.5623   -0.8451 C.2     1  UNL11       0.4383
     12 O          -3.7530    3.6902   -0.8812 O.2     1  UNL11      -0.2116
     13 C          -2.2272    2.2940   -1.7833 C.ar    1  UNL11       0.1005
     14 C          -1.8679    3.2136   -2.7468 C.ar    1  UNL11      -0.0441
     15 C          -0.8940    2.9048   -3.6729 C.ar    1  UNL11      -0.0608
     16 C          -0.2781    1.6685   -3.6325 C.ar    1  UNL11      -0.0611
     17 C          -0.6587    0.7804   -2.6637 C.ar    1  UNL11      -0.0517
     18 C          -1.6210    1.0429   -1.7229 C.ar    1  UNL11       0.0205
     19 C           2.6010   -1.8313    2.1084 C.ar    1  UNL11      -0.0355
     20 C           2.1243   -1.4352    3.3641 C.ar    1  UNL11      -0.0578
     21 C           2.4428   -2.1541    4.4786 C.ar    1  UNL11      -0.0615
     22 C           3.2355   -3.2858    4.4246 C.ar    1  UNL11      -0.0617
     23 C           3.7100   -3.6900    3.2164 C.ar    1  UNL11      -0.0615
     24 C           3.3872   -2.9592    2.0757 C.ar    1  UNL11      -0.0578
     25 H           1.4420    1.6920   -0.0363 H       1  UNL11       0.0230
     26 H           2.4680    0.6163   -1.1214 H       1  UNL11       0.0230
     27 H           3.1764    2.0171   -0.2401 H       1  UNL11       0.0230
     28 H           2.2569    0.8746    1.9043 H       1  UNL11       0.0273
     29 H           3.8279    0.4151    1.2065 H       1  UNL11       0.0273
     30 H           2.7214   -1.5256    0.0201 H       1  UNL11       0.0443
     31 H           0.7248   -1.0497   -1.4010 H       1  UNL11       0.1491
     32 H          -1.4580   -1.6600   -1.7638 H       1  UNL11       0.0529
     33 H          -1.6491   -1.8840    0.0310 H       1  UNL11       0.0529
     34 H          -4.2344    1.8692    0.7639 H       1  UNL11       0.4829
     35 H          -2.3399    4.1834   -2.7913 H       1  UNL11       0.0627
     36 H          -0.5751    3.5891   -4.4488 H       1  UNL11       0.0618
     37 H           0.4916    1.3617   -4.3267 H       1  UNL11       0.0618
     38 H          -0.1844   -0.1882   -2.6228 H       1  UNL11       0.0624
     39 H           1.4949   -0.5532    3.4778 H       1  UNL11       0.0620
     40 H           2.0766   -1.8485    5.4378 H       1  UNL11       0.0618
     41 H           3.4962   -3.8671    5.3078 H       1  UNL11       0.0618
     42 H           4.3401   -4.5829    3.1447 H       1  UNL11       0.0618
     43 H           3.7929   -3.3458    1.1528 H       1  UNL11       0.0620
@<TRIPOS>BOND
     1     1     2    1
     2     1    25    1
     3     1    26    1
     4     1    27    1
     5     2     3    1
     6     2    28    1
     7     2    29    1
     8     3     4    1
     9     3    19    1
    10     3    30    1
    11     4     5    2
    12     4     6   am
    13     6     7    1
    14     6    31    1
    15     7     8    1
    16     7    32    1
    17     7    33    1
    18     8     9    2
    19     9    10    1
    20    10    11   am
    21    10    34    1
    22    11    12    2
    23    11    13    1
    24    13    14   ar
    25    14    15   ar
    26    14    35    1
    27    15    16   ar
    28    15    36    1
    29    16    17   ar
    30    16    37    1
    31    17    18   ar
    32    17    38    1
    33    18     8    1
    34    18    13   ar
    35    19    20   ar
    36    20    21   ar
    37    20    39    1
    38    21    22   ar
    39    21    40    1
    40    22    23   ar
    41    22    41    1
    42    23    24   ar
    43    23    42    1
    44    24    19   ar
    45    24    43    1
@<TRIPOS>MOLECULE
*****
 43 45 0 0 0
SMALL
GASTEIGER

@<TRIPOS>ATOM
      1 C           2.7727   -0.9861   -1.5345 C.3     1  UNL11      -0.0643
      2 C           3.0183   -1.6609   -0.2172 C.3     1  UNL11      -0.0407
      3 C           2.2342   -1.0473    0.9073 C.3     1  UNL11       0.0603
      4 C           0.7746   -1.1229    0.6974 C.2     1  UNL11       0.2207
      5 O          -0.0033   -1.2055    1.7075 O.2     1  UNL11      -0.2751
      6 N           0.1355   -1.1124   -0.5601 N.am    1  UNL11      -0.3090
      7 C           0.8258   -1.0395   -1.8291 C.3     1  UNL11       0.0602
      8 C           0.1300   -1.7087   -2.9087 C.2     1  UNL11       0.1319
      9 N          -0.2626   -1.0342   -3.9963 N.2     1  UNL11      -0.0060
     10 N          -0.9084   -1.6627   -4.9950 N.am    1  UNL11      -0.0355
     11 C          -1.1937   -2.9714   -4.9674 C.2     1  UNL11       0.4383
     12 O          -1.7991   -3.5601   -5.9039 O.2     1  UNL11      -0.2116
     13 C          -0.8161   -3.7146   -3.8787 C.ar    1  UNL11       0.1005
     14 C          -1.0794   -5.0657   -3.7881 C.ar    1  UNL11      -0.0441
     15 C          -0.6829   -5.7777   -2.6758 C.ar    1  UNL11      -0.0608
     16 C          -0.0196   -5.1318   -1.6500 C.ar    1  UNL11      -0.0611
     17 C           0.2253   -3.7911   -1.7725 C.ar    1  UNL11      -0.0517
     18 C          -0.1497   -3.0427   -2.8586 C.ar    1  UNL11       0.0205
     19 C           2.6323    0.3657    1.0994 C.ar    1  UNL11      -0.0355
     20 C           2.0297    1.1216    2.1124 C.ar    1  UNL11      -0.0578
     21 C           2.3944    2.4209    2.3104 C.ar    1  UNL11      -0.0615
     22 C           3.3570    3.0427    1.5367 C.ar    1  UNL11      -0.0617
     23 C           3.9563    2.3289    0.5468 C.ar    1  UNL11      -0.0615
     24 C           3.5872    1.0018    0.3412 C.ar    1  UNL11      -0.0578
     25 H           3.5157   -0.1622   -1.6610 H       1  UNL11       0.0230
     26 H           1.7318   -0.6144   -1.6419 H       1  UNL11       0.0230
     27 H           2.9747   -1.7074   -2.3502 H       1  UNL11       0.0230
     28 H           4.1144   -1.5911   -0.0184 H       1  UNL11       0.0273
     29 H           2.7968   -2.7391   -0.3533 H       1  UNL11       0.0273
     30 H           2.4619   -1.6022    1.8526 H       1  UNL11       0.0443
     31 H          -0.8921   -1.1567   -0.5801 H       1  UNL11       0.1491
     32 H           0.8746    0.0540   -2.1032 H       1  UNL11       0.0529
     33 H           1.8478   -1.4031   -1.6153 H       1  UNL11       0.0529
     34 H          -1.2129   -1.1297   -5.8430 H       1  UNL11       0.4829
     35 H          -1.5967   -5.5844   -4.5810 H       1  UNL11       0.0627
     36 H          -0.8643   -6.8380   -2.5545 H       1  UNL11       0.0618
     37 H           0.3188   -5.6283   -0.7514 H       1  UNL11       0.0618
     38 H           0.7426   -3.2763   -0.9775 H       1  UNL11       0.0624
     39 H           1.2641    0.6933    2.7585 H       1  UNL11       0.0620
     40 H           1.9316    2.9965    3.0863 H       1  UNL11       0.0618
     41 H           3.6559    4.0792    1.6857 H       1  UNL11       0.0618
     42 H           4.7220    2.7965   -0.0810 H       1  UNL11       0.0618
     43 H           4.1121    0.4977   -0.4564 H       1  UNL11       0.0620
@<TRIPOS>BOND
     1     1     2    1
     2     1    25    1
     3     1    26    1
     4     1    27    1
     5     2     3    1
     6     2    28    1
     7     2    29    1
     8     3     4    1
     9     3    19    1
    10     3    30    1
    11     4     5    2
    12     4     6   am
    13     6     7    1
    14     6    31    1
    15     7     8    1
    16     7    32    1
    17     7    33    1
    18     8     9    2
    19     9    10    1
    20    10    11   am
    21    10    34    1
    22    11    12    2
    23    11    13    1
    24    13    14   ar
    25    14    15   ar
    26    14    35    1
    27    15    16   ar
    28    15    36    1
    29    16    17   ar
    30    16    37    1
    31    17    18   ar
    32    17    38    1
    33    18     8    1
    34    18    13   ar
    35    19    20   ar
    36    20    21   ar
    37    20    39    1
    38    21    22   ar
    39    21    40    1
    40    22    23   ar
    41    22    41    1
    42    23    24   ar
    43    23    42    1
    44    24    19   ar
    45    24    43    1
@<TRIPOS>MOLECULE
*****
 43 45 0 0 0
SMALL
GASTEIGER

@<TRIPOS>ATOM
      1 C           2.5426   -3.5255    0.7677 C.3     1  UNL11      -0.0643
      2 C           2.9765   -2.1817    0.2608 C.3     1  UNL11      -0.0407
      3 C           2.2342   -1.0473    0.9073 C.3     1  UNL11       0.0603
      4 C           0.7746   -1.1229    0.6974 C.2     1  UNL11       0.2207
      5 O          -0.0033   -1.2055    1.7075 O.2     1  UNL11      -0.2751
      6 N           0.1355   -1.1124   -0.5601 N.am    1  UNL11      -0.3090
      7 C           0.8258   -1.0395   -1.8291 C.3     1  UNL11       0.0602
      8 C           1.0343    0.3140   -2.3005 C.2     1  UNL11       0.1319
      9 N           1.0795    0.5866   -3.6104 N.2     1  UNL11      -0.0060
     10 N           1.2733    1.8462   -4.0407 N.am    1  UNL11      -0.0355
     11 C           1.4299    2.8840   -3.2079 C.2     1  UNL11       0.4383
     12 O           1.6116    4.0646   -3.6118 O.2     1  UNL11      -0.2116
     13 C           1.3928    2.6660   -1.8546 C.ar    1  UNL11       0.1005
     14 C           1.5471    3.6907   -0.9439 C.ar    1  UNL11      -0.0441
     15 C           1.5036    3.4297    0.4093 C.ar    1  UNL11      -0.0608
     16 C           1.3044    2.1356    0.8510 C.ar    1  UNL11      -0.0611
     17 C           1.1551    1.1435   -0.0794 C.ar    1  UNL11      -0.0517
     18 C           1.1912    1.3552   -1.4337 C.ar    1  UNL11       0.0205
     19 C           2.7385    0.2499    0.4026 C.ar    1  UNL11      -0.0355
     20 C           2.6441    0.5436   -0.9633 C.ar    1  UNL11      -0.0578
     21 C           3.0926    1.7395   -1.4422 C.ar    1  UNL11      -0.0615
     22 C           3.6508    2.7005   -0.6196 C.ar    1  UNL11      -0.0617
     23 C           3.7530    2.4382    0.7105 C.ar    1  UNL11      -0.0615
     24 C           3.2962    1.2186    1.2039 C.ar    1  UNL11      -0.0578
     25 H           1.7081   -3.8997    0.1270 H       1  UNL11       0.0230
     26 H           2.2558   -3.5104    1.8404 H       1  UNL11       0.0230
     27 H           3.3747   -4.2443    0.6361 H       1  UNL11       0.0230
     28 H           2.8104   -2.1843   -0.8429 H       1  UNL11       0.0273
     29 H           4.0736   -2.1128    0.4082 H       1  UNL11       0.0273
     30 H           2.4119   -1.0811    2.0121 H       1  UNL11       0.0443
     31 H          -0.8921   -1.1567   -0.5801 H       1  UNL11       0.1491
     32 H           1.8486   -1.4859   -1.6619 H       1  UNL11       0.0529
     33 H           0.2497   -1.7012   -2.5018 H       1  UNL11       0.0529
     34 H           1.3078    2.0531   -5.0663 H       1  UNL11       0.4829
     35 H           1.7035    4.7067   -1.2734 H       1  UNL11       0.0627
     36 H           1.6188    4.1960    1.1652 H       1  UNL11       0.0618
     37 H           1.2595    1.8612    1.8956 H       1  UNL11       0.0618
     38 H           0.9991    0.1290    0.2542 H       1  UNL11       0.0624
     39 H           2.2148   -0.1690   -1.6668 H       1  UNL11       0.0620
     40 H           3.0190    1.9611   -2.4876 H       1  UNL11       0.0618
     41 H           4.0122    3.6584   -0.9910 H       1  UNL11       0.0618
     42 H           4.1910    3.1816    1.3847 H       1  UNL11       0.0618
     43 H           3.4027    1.0859    2.2701 H       1  UNL11       0.0620
@<TRIPOS>BOND
     1     1     2    1
     2     1    25    1
     3     1    26    1
     4     1    27    1
     5     2     3    1
     6     2    28    1
     7     2    29    1
     8     3     4    1
     9     3    19    1
    10     3    30    1
    11     4     5    2
    12     4     6   am
    13     6     7    1
    14     6    31    1
    15     7     8    1
    16     7    32    1
    17     7    33    1
    18     8     9    2
    19     9    10    1
    20    10    11   am
    21    10    34    1
    22    11    12    2
    23    11    13    1
    24    13    14   ar
    25    14    15   ar
    26    14    35    1
    27    15    16   ar
    28    15    36    1
    29    16    17   ar
    30    16    37    1
    31    17    18   ar
    32    17    38    1
    33    18     8    1
    34    18    13   ar
    35    19    20   ar
    36    20    21   ar
    37    20    39    1
    38    21    22   ar
    39    21    40    1
    40    22    23   ar
    41    22    41    1
    42    23    24   ar
    43    23    42    1
    44    24    19   ar
    45    24    43    1
@<TRIPOS>MOLECULE
*****
 43 45 0 0 0
SMALL
GASTEIGER

@<TRIPOS>ATOM
      1 C           2.3520   -3.2899    2.0085 C.3     1  UNL11      -0.0643
      2 C           2.8915   -2.3976    0.9298 C.3     1  UNL11      -0.0407
      3 C           2.2342   -1.0473    0.9073 C.3     1  UNL11       0.0603
      4 C           0.7746   -1.1229    0.6974 C.2     1  UNL11       0.2207
      5 O          -0.0033   -1.2055    1.7075 O.2     1  UNL11      -0.2751
      6 N           0.1355   -1.1124   -0.5601 N.am    1  UNL11      -0.3090
      7 C           0.8258   -1.0395   -1.8291 C.3     1  UNL11       0.0602
      8 C           1.0343    0.3140   -2.3005 C.2     1  UNL11       0.1319
      9 N           0.6059    1.3637   -1.5887 N.2     1  UNL11      -0.0060
     10 N           0.8032    2.6179   -2.0330 N.am    1  UNL11      -0.0355
     11 C           1.4255    2.8918   -3.1875 C.2     1  UNL11       0.4383
     12 O           1.6102    4.0677   -3.6035 O.2     1  UNL11      -0.2116
     13 C           1.8866    1.8568   -3.9597 C.ar    1  UNL11       0.1005
     14 C           2.5352    2.0707   -5.1583 C.ar    1  UNL11      -0.0441
     15 C           2.9838    1.0022   -5.9057 C.ar    1  UNL11      -0.0608
     16 C           2.7809   -0.2861   -5.4490 C.ar    1  UNL11      -0.0611
     17 C           2.1340   -0.4621   -4.2562 C.ar    1  UNL11      -0.0517
     18 C           1.6707    0.5687   -3.4795 C.ar    1  UNL11       0.0205
     19 C           2.8403   -0.1988   -0.1437 C.ar    1  UNL11      -0.0355
     20 C           4.1816   -0.3898   -0.4975 C.ar    1  UNL11      -0.0578
     21 C           4.7512    0.3752   -1.4727 C.ar    1  UNL11      -0.0615
     22 C           4.0469    1.3564   -2.1458 C.ar    1  UNL11      -0.0617
     23 C           2.7428    1.5602   -1.8197 C.ar    1  UNL11      -0.0615
     24 C           2.1570    0.7813   -0.8248 C.ar    1  UNL11      -0.0578
     25 H           1.4956   -3.8761    1.5961 H       1  UNL11       0.0230
     26 H           2.0597   -2.7330    2.9237 H       1  UNL11       0.0230
     27 H           3.1272   -4.0324    2.2809 H       1  UNL11       0.0230
     28 H           2.7333   -2.9300   -0.0384 H       1  UNL11       0.0273
     29 H           3.9896   -2.3354    1.0726 H       1  UNL11       0.0273
     30 H           2.4012   -0.5468    1.8947 H       1  UNL11       0.0443
     31 H          -0.8921   -1.1567   -0.5801 H       1  UNL11       0.1491
     32 H           1.8486   -1.4859   -1.6619 H       1  UNL11       0.0529
     33 H           0.2497   -1.7012   -2.5018 H       1  UNL11       0.0529
     34 H           0.4659    3.4348   -1.4718 H       1  UNL11       0.4829
     35 H           2.7011    3.0711   -5.5284 H       1  UNL11       0.0627
     36 H           3.4978    1.1144   -6.8517 H       1  UNL11       0.0618
     37 H           3.1061   -1.1675   -5.9836 H       1  UNL11       0.0618
     38 H           1.9700   -1.4639   -3.8898 H       1  UNL11       0.0624
     39 H           4.7940   -1.1457   -0.0070 H       1  UNL11       0.0620
     40 H           5.7776    0.2266   -1.7410 H       1  UNL11       0.0618
     41 H           4.4914    1.9729   -2.9257 H       1  UNL11       0.0618
     42 H           2.1614    2.3307   -2.3369 H       1  UNL11       0.0618
     43 H           1.1172    0.9949   -0.6273 H       1  UNL11       0.0620
@<TRIPOS>BOND
     1     1     2    1
     2     1    25    1
     3     1    26    1
     4     1    27    1
     5     2     3    1
     6     2    28    1
     7     2    29    1
     8     3     4    1
     9     3    19    1
    10     3    30    1
    11     4     5    2
    12     4     6   am
    13     6     7    1
    14     6    31    1
    15     7     8    1
    16     7    32    1
    17     7    33    1
    18     8     9    2
    19     9    10    1
    20    10    11   am
    21    10    34    1
    22    11    12    2
    23    11    13    1
    24    13    14   ar
    25    14    15   ar
    26    14    35    1
    27    15    16   ar
    28    15    36    1
    29    16    17   ar
    30    16    37    1
    31    17    18   ar
    32    17    38    1
    33    18     8    1
    34    18    13   ar
    35    19    20   ar
    36    20    21   ar
    37    20    39    1
    38    21    22   ar
    39    21    40    1
    40    22    23   ar
    41    22    41    1
    42    23    24   ar
    43    23    42    1
    44    24    19   ar
    45    24    43    1
@<TRIPOS>MOLECULE
*****
 43 45 0 0 0
SMALL
GASTEIGER

@<TRIPOS>ATOM
      1 C           2.4337    1.1981   -0.1763 C.3     1  UNL11      -0.0643
      2 C           2.7335    0.3635    1.0339 C.3     1  UNL11      -0.0407
      3 C           2.2342   -1.0473    0.9073 C.3     1  UNL11       0.0603
      4 C           0.7746   -1.1229    0.6974 C.2     1  UNL11       0.2207
      5 O          -0.0033   -1.2055    1.7075 O.2     1  UNL11      -0.2751
      6 N           0.1355   -1.1124   -0.5601 N.am    1  UNL11      -0.3090
      7 C          -1.2962   -1.1878   -0.7519 C.3     1  UNL11       0.0602
      8 C          -1.9840   -1.9244    0.2883 C.2     1  UNL11       0.1319
      9 N          -1.3082   -2.4660    1.3091 N.2     1  UNL11      -0.0060
     10 N          -1.9540   -3.1487    2.2715 N.am    1  UNL11      -0.0355
     11 C          -3.2819   -3.3269    2.2716 C.2     1  UNL11       0.4383
     12 O          -3.8867   -3.9670    3.1740 O.2     1  UNL11      -0.2116
     13 C          -4.0273   -2.7947    1.2511 C.ar    1  UNL11       0.1005
     14 C          -5.3977   -2.9419    1.1922 C.ar    1  UNL11      -0.0441
     15 C          -6.1112   -2.3913    0.1486 C.ar    1  UNL11      -0.0608
     16 C          -5.4475   -1.6900   -0.8399 C.ar    1  UNL11      -0.0611
     17 C          -4.0881   -1.5631   -0.7503 C.ar    1  UNL11      -0.0517
     18 C          -3.3373   -2.0929    0.2675 C.ar    1  UNL11       0.0205
     19 C           2.6010   -1.8313    2.1084 C.ar    1  UNL11      -0.0355
     20 C           3.7624   -1.5041    2.8189 C.ar    1  UNL11      -0.0578
     21 C           4.1074   -2.2087    3.9347 C.ar    1  UNL11      -0.0615
     22 C           3.3433   -3.2588    4.4093 C.ar    1  UNL11      -0.0617
     23 C           2.2109   -3.5950    3.7362 C.ar    1  UNL11      -0.0615
     24 C           1.8546   -2.8782    2.5965 C.ar    1  UNL11      -0.0578
     25 H           1.4420    1.6920   -0.0363 H       1  UNL11       0.0230
     26 H           2.4680    0.6163   -1.1214 H       1  UNL11       0.0230
     27 H           3.1764    2.0171   -0.2401 H       1  UNL11       0.0230
     28 H           2.2569    0.8746    1.9043 H       1  UNL11       0.0273
     29 H           3.8279    0.4151    1.2065 H       1  UNL11       0.0273
     30 H           2.7214   -1.5256    0.0201 H       1  UNL11       0.0443
     31 H           0.7248   -1.0497   -1.4010 H       1  UNL11       0.1491
     32 H          -1.6803   -0.1277   -0.7068 H       1  UNL11       0.0529
     33 H          -1.4229   -1.5733   -1.7803 H       1  UNL11       0.0529
     34 H          -1.4199   -3.5700    3.0673 H       1  UNL11       0.4829
     35 H          -5.9304   -3.4870    1.9567 H       1  UNL11       0.0627
     36 H          -7.1862   -2.4772    0.0546 H       1  UNL11       0.0618
     37 H          -5.9442   -1.2334   -1.6845 H       1  UNL11       0.0618
     38 H          -3.5593   -1.0176   -1.5168 H       1  UNL11       0.0624
     39 H           4.4098   -0.6880    2.4997 H       1  UNL11       0.0620
     40 H           4.9966   -1.9559    4.4760 H       1  UNL11       0.0618
     41 H           3.6091   -3.8282    5.2987 H       1  UNL11       0.0618
     42 H           1.5870   -4.4225    4.0901 H       1  UNL11       0.0618
     43 H           0.9391   -3.1973    2.1211 H       1  UNL11       0.0620
@<TRIPOS>BOND
     1     1     2    1
     2     1    25    1
     3     1    26    1
     4     1    27    1
     5     2     3    1
     6     2    28    1
     7     2    29    1
     8     3     4    1
     9     3    19    1
    10     3    30    1
    11     4     5    2
    12     4     6   am
    13     6     7    1
    14     6    31    1
    15     7     8    1
    16     7    32    1
    17     7    33    1
    18     8     9    2
    19     9    10    1
    20    10    11   am
    21    10    34    1
    22    11    12    2
    23    11    13    1
    24    13    14   ar
    25    14    15   ar
    26    14    35    1
    27    15    16   ar
    28    15    36    1
    29    16    17   ar
    30    16    37    1
    31    17    18   ar
    32    17    38    1
    33    18     8    1
    34    18    13   ar
    35    19    20   ar
    36    20    21   ar
    37    20    39    1
    38    21    22   ar
    39    21    40    1
    40    22    23   ar
    41    22    41    1
    42    23    24   ar
    43    23    42    1
    44    24    19   ar
    45    24    43    1
@<TRIPOS>MOLECULE
*****
 43 45 0 0 0
SMALL
GASTEIGER

@<TRIPOS>ATOM
      1 C           4.3718   -2.3208    1.1618 C.3     1  UNL11      -0.0643
      2 C           2.8915   -2.3976    0.9298 C.3     1  UNL11      -0.0407
      3 C           2.2342   -1.0473    0.9073 C.3     1  UNL11       0.0603
      4 C           0.7746   -1.1229    0.6974 C.2     1  UNL11       0.2207
      5 O          -0.0033   -1.2055    1.7075 O.2     1  UNL11      -0.2751
      6 N           0.1355   -1.1124   -0.5601 N.am    1  UNL11      -0.3090
      7 C           0.8258   -1.0395   -1.8291 C.3     1  UNL11       0.0602
      8 C          -0.0615   -1.0278   -2.9737 C.2     1  UNL11       0.1319
      9 N          -0.9633   -0.0517   -3.1347 N.2     1  UNL11      -0.0060
     10 N          -1.7840   -0.0475   -4.2005 N.am    1  UNL11      -0.0355
     11 C          -1.7535   -0.9958   -5.1465 C.2     1  UNL11       0.4383
     12 O          -2.5231   -0.9914   -6.1453 O.2     1  UNL11      -0.2116
     13 C          -0.8502   -2.0215   -5.0353 C.ar    1  UNL11       0.1005
     14 C          -0.7675   -3.0286   -5.9744 C.ar    1  UNL11      -0.0441
     15 C           0.1550   -4.0426   -5.8260 C.ar    1  UNL11      -0.0608
     16 C           0.9980   -4.0466   -4.7310 C.ar    1  UNL11      -0.0611
     17 C           0.8889   -3.0325   -3.8189 C.ar    1  UNL11      -0.0517
     18 C          -0.0122   -2.0042   -3.9246 C.ar    1  UNL11       0.0205
     19 C           2.8403   -0.1988   -0.1437 C.ar    1  UNL11      -0.0355
     20 C           4.2104    0.0864   -0.0965 C.ar    1  UNL11      -0.0578
     21 C           4.7863    0.8562   -1.0642 C.ar    1  UNL11      -0.0615
     22 C           4.0607    1.3816   -2.1174 C.ar    1  UNL11      -0.0617
     23 C           2.7286    1.1182   -2.1846 C.ar    1  UNL11      -0.0615
     24 C           2.1364    0.3326   -1.1989 C.ar    1  UNL11      -0.0578
     25 H           4.5671   -2.3698    2.2602 H       1  UNL11       0.0230
     26 H           4.8341   -1.4195    0.7069 H       1  UNL11       0.0230
     27 H           4.8502   -3.2196    0.7261 H       1  UNL11       0.0230
     28 H           2.4692   -3.0288    1.7477 H       1  UNL11       0.0273
     29 H           2.7346   -2.9643   -0.0105 H       1  UNL11       0.0273
     30 H           2.4012   -0.5468    1.8947 H       1  UNL11       0.0443
     31 H          -0.8921   -1.1567   -0.5801 H       1  UNL11       0.1491
     32 H           1.3773   -0.0551   -1.8361 H       1  UNL11       0.0529
     33 H           1.5615   -1.8641   -1.7975 H       1  UNL11       0.0529
     34 H          -2.4873    0.7186   -4.3208 H       1  UNL11       0.4829
     35 H          -1.4190   -3.0394   -6.8350 H       1  UNL11       0.0627
     36 H           0.2614   -4.8558   -6.5326 H       1  UNL11       0.0618
     37 H           1.7428   -4.8096   -4.5533 H       1  UNL11       0.0618
     38 H           1.5421   -3.0254   -2.9599 H       1  UNL11       0.0624
     39 H           4.8405   -0.2960    0.7058 H       1  UNL11       0.0620
     40 H           5.8347    1.0725   -1.0252 H       1  UNL11       0.0618
     41 H           4.5100    1.9974   -2.8952 H       1  UNL11       0.0618
     42 H           2.1300    1.5217   -3.0081 H       1  UNL11       0.0618
     43 H           1.0779    0.1598   -1.3241 H       1  UNL11       0.0620
@<TRIPOS>BOND
     1     1     2    1
     2     1    25    1
     3     1    26    1
     4     1    27    1
     5     2     3    1
     6     2    28    1
     7     2    29    1
     8     3     4    1
     9     3    19    1
    10     3    30    1
    11     4     5    2
    12     4     6   am
    13     6     7    1
    14     6    31    1
    15     7     8    1
    16     7    32    1
    17     7    33    1
    18     8     9    2
    19     9    10    1
    20    10    11   am
    21    10    34    1
    22    11    12    2
    23    11    13    1
    24    13    14   ar
    25    14    15   ar
    26    14    35    1
    27    15    16   ar
    28    15    36    1
    29    16    17   ar
    30    16    37    1
    31    17    18   ar
    32    17    38    1
    33    18     8    1
    34    18    13   ar
    35    19    20   ar
    36    20    21   ar
    37    20    39    1
    38    21    22   ar
    39    21    40    1
    40    22    23   ar
    41    22    41    1
    42    23    24   ar
    43    23    42    1
    44    24    19   ar
    45    24    43    1
@<TRIPOS>MOLECULE
*****
 43 45 0 0 0
SMALL
GASTEIGER

@<TRIPOS>ATOM
      1 C           2.5426   -3.5255    0.7677 C.3     1  UNL11      -0.0643
      2 C           2.9765   -2.1817    0.2608 C.3     1  UNL11      -0.0407
      3 C           2.2342   -1.0473    0.9073 C.3     1  UNL11       0.0603
      4 C           0.7746   -1.1229    0.6974 C.2     1  UNL11       0.2207
      5 O          -0.0033   -1.2055    1.7075 O.2     1  UNL11      -0.2751
      6 N           0.1355   -1.1124   -0.5601 N.am    1  UNL11      -0.3090
      7 C          -1.2962   -1.1878   -0.7519 C.3     1  UNL11       0.0602
      8 C          -1.6978   -1.1749   -2.1433 C.2     1  UNL11       0.1319
      9 N          -2.8723   -0.6511   -2.5152 N.2     1  UNL11      -0.0060
     10 N          -3.2383   -0.6426   -3.8096 N.am    1  UNL11      -0.0355
     11 C          -2.4713   -1.1451   -4.7864 C.2     1  UNL11       0.4383
     12 O          -2.8150   -1.1369   -5.9995 O.2     1  UNL11      -0.2116
     13 C          -1.2567   -1.6951   -4.4659 C.ar    1  UNL11       0.1005
     14 C          -0.4198   -2.2291   -5.4237 C.ar    1  UNL11      -0.0441
     15 C           0.7940   -2.7732   -5.0602 C.ar    1  UNL11      -0.0608
     16 C           1.1698   -2.7817   -3.7304 C.ar    1  UNL11      -0.0611
     17 C           0.3156   -2.2438   -2.8067 C.ar    1  UNL11      -0.0517
     18 C          -0.8999   -1.6924   -3.1209 C.ar    1  UNL11       0.0205
     19 C           2.7385    0.2499    0.4026 C.ar    1  UNL11      -0.0355
     20 C           2.6441    0.5436   -0.9633 C.ar    1  UNL11      -0.0578
     21 C           3.0926    1.7395   -1.4422 C.ar    1  UNL11      -0.0615
     22 C           3.6508    2.7005   -0.6196 C.ar    1  UNL11      -0.0617
     23 C           3.7530    2.4382    0.7105 C.ar    1  UNL11      -0.0615
     24 C           3.2962    1.2186    1.2039 C.ar    1  UNL11      -0.0578
     25 H           1.7081   -3.8997    0.1270 H       1  UNL11       0.0230
     26 H           2.2558   -3.5104    1.8404 H       1  UNL11       0.0230
     27 H           3.3747   -4.2443    0.6361 H       1  UNL11       0.0230
     28 H           2.8104   -2.1843   -0.8429 H       1  UNL11       0.0273
     29 H           4.0736   -2.1128    0.4082 H       1  UNL11       0.0273
     30 H           2.4119   -1.0811    2.0121 H       1  UNL11       0.0443
     31 H           0.7248   -1.0497   -1.4010 H       1  UNL11       0.1491
     32 H          -1.6227   -2.1817   -0.3292 H       1  UNL11       0.0529
     33 H          -1.7078   -0.3766   -0.1235 H       1  UNL11       0.0529
     34 H          -4.1581   -0.2315   -4.0942 H       1  UNL11       0.4829
     35 H          -0.6992   -2.2299   -6.4664 H       1  UNL11       0.0627
     36 H           1.4872   -3.2047   -5.7708 H       1  UNL11       0.0618
     37 H           2.1055   -3.1914   -3.3767 H       1  UNL11       0.0618
     38 H           0.5987   -2.2451   -1.7653 H       1  UNL11       0.0624
     39 H           2.2148   -0.1690   -1.6668 H       1  UNL11       0.0620
     40 H           3.0190    1.9611   -2.4876 H       1  UNL11       0.0618
     41 H           4.0122    3.6584   -0.9910 H       1  UNL11       0.0618
     42 H           4.1910    3.1816    1.3847 H       1  UNL11       0.0618
     43 H           3.4027    1.0859    2.2701 H       1  UNL11       0.0620
@<TRIPOS>BOND
     1     1     2    1
     2     1    25    1
     3     1    26    1
     4     1    27    1
     5     2     3    1
     6     2    28    1
     7     2    29    1
     8     3     4    1
     9     3    19    1
    10     3    30    1
    11     4     5    2
    12     4     6   am
    13     6     7    1
    14     6    31    1
    15     7     8    1
    16     7    32    1
    17     7    33    1
    18     8     9    2
    19     9    10    1
    20    10    11   am
    21    10    34    1
    22    11    12    2
    23    11    13    1
    24    13    14   ar
    25    14    15   ar
    26    14    35    1
    27    15    16   ar
    28    15    36    1
    29    16    17   ar
    30    16    37    1
    31    17    18   ar
    32    17    38    1
    33    18     8    1
    34    18    13   ar
    35    19    20   ar
    36    20    21   ar
    37    20    39    1
    38    21    22   ar
    39    21    40    1
    40    22    23   ar
    41    22    41    1
    42    23    24   ar
    43    23    42    1
    44    24    19   ar
    45    24    43    1
@<TRIPOS>MOLECULE
*****
 43 45 0 0 0
SMALL
GASTEIGER

@<TRIPOS>ATOM
      1 C           2.0697   -1.1199    3.4020 C.3     1  UNL11      -0.0643
      2 C           2.6040   -0.3890    2.2056 C.3     1  UNL11      -0.0407
      3 C           2.2342   -1.0473    0.9073 C.3     1  UNL11       0.0603
      4 C           0.7746   -1.1229    0.6974 C.2     1  UNL11       0.2207
      5 O          -0.0033   -1.2055    1.7075 O.2     1  UNL11      -0.2751
      6 N           0.1355   -1.1124   -0.5601 N.am    1  UNL11      -0.3090
      7 C           0.8258   -1.0395   -1.8291 C.3     1  UNL11       0.0602
      8 C           2.2673   -0.9762   -1.7039 C.2     1  UNL11       0.1319
      9 N           2.9505   -1.9658   -1.1156 N.2     1  UNL11      -0.0060
     10 N           4.2893   -1.9000   -1.0031 N.am    1  UNL11      -0.0355
     11 C           5.0084   -0.8663   -1.4606 C.2     1  UNL11       0.4383
     12 O           6.2634   -0.8051   -1.3549 O.2     1  UNL11      -0.2116
     13 C           4.3632    0.1773   -2.0729 C.ar    1  UNL11       0.1005
     14 C           5.0446    1.2709   -2.5657 C.ar    1  UNL11      -0.0441
     15 C           4.3584    2.3002   -3.1749 C.ar    1  UNL11      -0.0608
     16 C           2.9831    2.2323   -3.2903 C.ar    1  UNL11      -0.0611
     17 C           2.3391    1.1333   -2.7907 C.ar    1  UNL11      -0.0517
     18 C           2.9786    0.0867   -2.1775 C.ar    1  UNL11       0.0205
     19 C           2.8134   -2.4080    0.8385 C.ar    1  UNL11      -0.0355
     20 C           3.5796   -2.8876    1.9080 C.ar    1  UNL11      -0.0578
     21 C           4.1097   -4.1437    1.8654 C.ar    1  UNL11      -0.0615
     22 C           3.9205   -4.9877    0.7866 C.ar    1  UNL11      -0.0617
     23 C           3.1800   -4.5442   -0.2638 C.ar    1  UNL11      -0.0615
     24 C           2.6366   -3.2624   -0.2246 C.ar    1  UNL11      -0.0578
     25 H           2.8282   -1.8689    3.7347 H       1  UNL11       0.0230
     26 H           1.0845   -1.5960    3.2128 H       1  UNL11       0.0230
     27 H           1.9595   -0.4041    4.2399 H       1  UNL11       0.0230
     28 H           3.7130   -0.3441    2.3239 H       1  UNL11       0.0273
     29 H           2.2434    0.6578    2.2713 H       1  UNL11       0.0273
     30 H           2.6594   -0.4474    0.0631 H       1  UNL11       0.0443
     31 H          -0.8921   -1.1567   -0.5801 H       1  UNL11       0.1491
     32 H           0.5895   -1.9976   -2.3762 H       1  UNL11       0.0529
     33 H           0.3503   -0.1946   -2.3605 H       1  UNL11       0.0529
     34 H           4.8180   -2.6770   -0.5420 H       1  UNL11       0.4829
     35 H           6.1188    1.3385   -2.4830 H       1  UNL11       0.0627
     36 H           4.8439    3.1797   -3.5781 H       1  UNL11       0.0618
     37 H           2.3840    3.0024   -3.7557 H       1  UNL11       0.0618
     38 H           1.2650    1.0696   -2.8753 H       1  UNL11       0.0624
     39 H           3.7676   -2.2747    2.7889 H       1  UNL11       0.0620
     40 H           4.6953   -4.5077    2.6852 H       1  UNL11       0.0618
     41 H           4.3390   -5.9921    0.7418 H       1  UNL11       0.0618
     42 H           3.0143   -5.1918   -1.1312 H       1  UNL11       0.0618
     43 H           2.0542   -2.9841   -1.0901 H       1  UNL11       0.0620
@<TRIPOS>BOND
     1     1     2    1
     2     1    25    1
     3     1    26    1
     4     1    27    1
     5     2     3    1
     6     2    28    1
     7     2    29    1
     8     3     4    1
     9     3    19    1
    10     3    30    1
    11     4     5    2
    12     4     6   am
    13     6     7    1
    14     6    31    1
    15     7     8    1
    16     7    32    1
    17     7    33    1
    18     8     9    2
    19     9    10    1
    20    10    11   am
    21    10    34    1
    22    11    12    2
    23    11    13    1
    24    13    14   ar
    25    14    15   ar
    26    14    35    1
    27    15    16   ar
    28    15    36    1
    29    16    17   ar
    30    16    37    1
    31    17    18   ar
    32    17    38    1
    33    18     8    1
    34    18    13   ar
    35    19    20   ar
    36    20    21   ar
    37    20    39    1
    38    21    22   ar
    39    21    40    1
    40    22    23   ar
    41    22    41    1
    42    23    24   ar
    43    23    42    1
    44    24    19   ar
    45    24    43    1
@<TRIPOS>MOLECULE
*****
 43 45 0 0 0
SMALL
GASTEIGER

@<TRIPOS>ATOM
      1 C           4.2192    0.4401    1.2285 C.3     1  UNL11      -0.0643
      2 C           2.7335    0.3635    1.0339 C.3     1  UNL11      -0.0407
      3 C           2.2342   -1.0473    0.9073 C.3     1  UNL11       0.0603
      4 C           0.7746   -1.1229    0.6974 C.2     1  UNL11       0.2207
      5 O          -0.0033   -1.2055    1.7075 O.2     1  UNL11      -0.2751
      6 N           0.1355   -1.1124   -0.5601 N.am    1  UNL11      -0.3090
      7 C           0.8258   -1.0395   -1.8291 C.3     1  UNL11       0.0602
      8 C           1.7267   -2.1486   -2.0653 C.2     1  UNL11       0.1319
      9 N           2.7429   -2.3989   -1.2305 N.2     1  UNL11      -0.0060
     10 N           3.5754   -3.4310   -1.4565 N.am    1  UNL11      -0.0355
     11 C           3.4457   -4.2550   -2.5049 C.2     1  UNL11       0.4383
     12 O           4.2264   -5.2223   -2.7162 O.2     1  UNL11      -0.2116
     13 C           2.4229   -4.0481   -3.3945 C.ar    1  UNL11       0.1005
     14 C           2.2340   -4.8597   -4.4939 C.ar    1  UNL11      -0.0441
     15 C           1.1930   -4.6179   -5.3652 C.ar    1  UNL11      -0.0608
     16 C           0.3379   -3.5576   -5.1328 C.ar    1  UNL11      -0.0611
     17 C           0.5542   -2.7728   -4.0330 C.ar    1  UNL11      -0.0517
     18 C           1.5749   -2.9746   -3.1399 C.ar    1  UNL11       0.0205
     19 C           2.6010   -1.8313    2.1084 C.ar    1  UNL11      -0.0355
     20 C           3.7624   -1.5041    2.8189 C.ar    1  UNL11      -0.0578
     21 C           4.1074   -2.2087    3.9347 C.ar    1  UNL11      -0.0615
     22 C           3.3433   -3.2588    4.4093 C.ar    1  UNL11      -0.0617
     23 C           2.2109   -3.5950    3.7362 C.ar    1  UNL11      -0.0615
     24 C           1.8546   -2.8782    2.5965 C.ar    1  UNL11      -0.0578
     25 H           4.7101    0.5116    0.2280 H       1  UNL11       0.0230
     26 H           4.6219   -0.4099    1.8187 H       1  UNL11       0.0230
     27 H           4.4637    1.3824    1.7566 H       1  UNL11       0.0230
     28 H           2.4981    0.9499    0.1138 H       1  UNL11       0.0273
     29 H           2.2626    0.9089    1.8770 H       1  UNL11       0.0273
     30 H           2.7214   -1.5256    0.0201 H       1  UNL11       0.0443
     31 H          -0.8921   -1.1567   -0.5801 H       1  UNL11       0.1491
     32 H           0.0308   -1.0915   -2.6281 H       1  UNL11       0.0529
     33 H           1.2849   -0.0338   -1.8428 H       1  UNL11       0.0529
     34 H           4.3683   -3.6217   -0.8000 H       1  UNL11       0.4829
     35 H           2.8935   -5.6918   -4.6890 H       1  UNL11       0.0627
     36 H           1.0003   -5.2232   -6.2417 H       1  UNL11       0.0618
     37 H          -0.4969   -3.3117   -5.7742 H       1  UNL11       0.0618
     38 H          -0.1074   -1.9419   -3.8417 H       1  UNL11       0.0624
     39 H           4.4098   -0.6880    2.4997 H       1  UNL11       0.0620
     40 H           4.9966   -1.9559    4.4760 H       1  UNL11       0.0618
     41 H           3.6091   -3.8282    5.2987 H       1  UNL11       0.0618
     42 H           1.5870   -4.4225    4.0901 H       1  UNL11       0.0618
     43 H           0.9391   -3.1973    2.1211 H       1  UNL11       0.0620
@<TRIPOS>BOND
     1     1     2    1
     2     1    25    1
     3     1    26    1
     4     1    27    1
     5     2     3    1
     6     2    28    1
     7     2    29    1
     8     3     4    1
     9     3    19    1
    10     3    30    1
    11     4     5    2
    12     4     6   am
    13     6     7    1
    14     6    31    1
    15     7     8    1
    16     7    32    1
    17     7    33    1
    18     8     9    2
    19     9    10    1
    20    10    11   am
    21    10    34    1
    22    11    12    2
    23    11    13    1
    24    13    14   ar
    25    14    15   ar
    26    14    35    1
    27    15    16   ar
    28    15    36    1
    29    16    17   ar
    30    16    37    1
    31    17    18   ar
    32    17    38    1
    33    18     8    1
    34    18    13   ar
    35    19    20   ar
    36    20    21   ar
    37    20    39    1
    38    21    22   ar
    39    21    40    1
    40    22    23   ar
    41    22    41    1
    42    23    24   ar
    43    23    42    1
    44    24    19   ar
    45    24    43    1
@<TRIPOS>MOLECULE
*****
 43 45 0 0 0
SMALL
GASTEIGER

@<TRIPOS>ATOM
      1 C           4.0875   -0.2958    2.4094 C.3     1  UNL11      -0.0643
      2 C           2.6040   -0.3890    2.2056 C.3     1  UNL11      -0.0407
      3 C           2.2342   -1.0473    0.9073 C.3     1  UNL11       0.0603
      4 C           0.7746   -1.1229    0.6974 C.2     1  UNL11       0.2207
      5 O          -0.0033   -1.2055    1.7075 O.2     1  UNL11      -0.2751
      6 N           0.1355   -1.1124   -0.5601 N.am    1  UNL11      -0.3090
      7 C           0.8258   -1.0395   -1.8291 C.3     1  UNL11       0.0602
      8 C           0.4677    0.1198   -2.6199 C.2     1  UNL11       0.1319
      9 N           0.6805    1.3587   -2.1594 N.2     1  UNL11      -0.0060
     10 N           0.3453    2.4306   -2.8998 N.am    1  UNL11      -0.0355
     11 C          -0.2094    2.3312   -4.1153 C.2     1  UNL11       0.4383
     12 O          -0.5234    3.3364   -4.8088 O.2     1  UNL11      -0.2116
     13 C          -0.4511    1.0874   -4.6396 C.ar    1  UNL11       0.1005
     14 C          -1.0195    0.9161   -5.8848 C.ar    1  UNL11      -0.0441
     15 C          -1.2464   -0.3520   -6.3763 C.ar    1  UNL11      -0.0608
     16 C          -0.9020   -1.4530   -5.6155 C.ar    1  UNL11      -0.0611
     17 C          -0.3403   -1.2469   -4.3850 C.ar    1  UNL11      -0.0517
     18 C          -0.0960   -0.0059   -3.8554 C.ar    1  UNL11       0.0205
     19 C           2.8134   -2.4080    0.8385 C.ar    1  UNL11      -0.0355
     20 C           2.1479   -3.4065    0.1168 C.ar    1  UNL11      -0.0578
     21 C           2.6748   -4.6619    0.0333 C.ar    1  UNL11      -0.0615
     22 C           3.8673   -5.0031    0.6444 C.ar    1  UNL11      -0.0617
     23 C           4.5319   -4.0503    1.3508 C.ar    1  UNL11      -0.0615
     24 C           3.9977   -2.7672    1.4385 C.ar    1  UNL11      -0.0578
     25 H           4.4492    0.6716    1.9848 H       1  UNL11       0.0230
     26 H           4.6376   -1.1591    1.9793 H       1  UNL11       0.0230
     27 H           4.2981   -0.2502    3.4957 H       1  UNL11       0.0230
     28 H           2.2066    0.6533    2.2472 H       1  UNL11       0.0273
     29 H           2.1832   -0.9157    3.0863 H       1  UNL11       0.0273
     30 H           2.6594   -0.4474    0.0631 H       1  UNL11       0.0443
     31 H          -0.8921   -1.1567   -0.5801 H       1  UNL11       0.1491
     32 H           1.9242   -0.9420   -1.5895 H       1  UNL11       0.0529
     33 H           0.6466   -2.0215   -2.3042 H       1  UNL11       0.0529
     34 H           0.5142    3.3969   -2.5342 H       1  UNL11       0.4829
     35 H          -1.2940    1.7662   -6.4909 H       1  UNL11       0.0627
     36 H          -1.6891   -0.5420   -7.3457 H       1  UNL11       0.0618
     37 H          -1.0519   -2.4734   -5.9394 H       1  UNL11       0.0618
     38 H          -0.0674   -2.0994   -3.7822 H       1  UNL11       0.0624
     39 H           1.2041   -3.2052   -0.3889 H       1  UNL11       0.0620
     40 H           2.1632   -5.4235   -0.5196 H       1  UNL11       0.0618
     41 H           4.2971   -6.0020    0.5845 H       1  UNL11       0.0618
     42 H           5.4785   -4.2933    1.8448 H       1  UNL11       0.0618
     43 H           4.5855   -2.0632    2.0083 H       1  UNL11       0.0620
@<TRIPOS>BOND
     1     1     2    1
     2     1    25    1
     3     1    26    1
     4     1    27    1
     5     2     3    1
     6     2    28    1
     7     2    29    1
     8     3     4    1
     9     3    19    1
    10     3    30    1
    11     4     5    2
    12     4     6   am
    13     6     7    1
    14     6    31    1
    15     7     8    1
    16     7    32    1
    17     7    33    1
    18     8     9    2
    19     9    10    1
    20    10    11   am
    21    10    34    1
    22    11    12    2
    23    11    13    1
    24    13    14   ar
    25    14    15   ar
    26    14    35    1
    27    15    16   ar
    28    15    36    1
    29    16    17   ar
    30    16    37    1
    31    17    18   ar
    32    17    38    1
    33    18     8    1
    34    18    13   ar
    35    19    20   ar
    36    20    21   ar
    37    20    39    1
    38    21    22   ar
    39    21    40    1
    40    22    23   ar
    41    22    41    1
    42    23    24   ar
    43    23    42    1
    44    24    19   ar
    45    24    43    1
@<TRIPOS>MOLECULE
*****
 43 45 0 0 0
SMALL
GASTEIGER

@<TRIPOS>ATOM
      1 C           2.5606   -3.5266    0.8556 C.3     1  UNL11      -0.0643
      2 C           2.7855   -2.2521    1.6146 C.3     1  UNL11      -0.0407
      3 C           2.2342   -1.0473    0.9073 C.3     1  UNL11       0.0603
      4 C           0.7746   -1.1229    0.6974 C.2     1  UNL11       0.2207
      5 O          -0.0033   -1.2055    1.7075 O.2     1  UNL11      -0.2751
      6 N           0.1355   -1.1124   -0.5601 N.am    1  UNL11      -0.3090
      7 C           0.8258   -1.0395   -1.8291 C.3     1  UNL11       0.0602
      8 C           1.0343    0.3140   -2.3005 C.2     1  UNL11       0.1319
      9 N           2.1434    0.9911   -1.9787 N.2     1  UNL11      -0.0060
     10 N           2.3300    2.2478   -2.4204 N.am    1  UNL11      -0.0355
     11 C           1.4409    2.8880   -3.1916 C.2     1  UNL11       0.4383
     12 O           1.6163    4.0661   -3.6054 O.2     1  UNL11      -0.2116
     13 C           0.2854    2.2447   -3.5540 C.ar    1  UNL11       0.1005
     14 C          -0.6701    2.8473   -4.3458 C.ar    1  UNL11      -0.0441
     15 C          -1.8191    2.1660   -4.6880 C.ar    1  UNL11      -0.0608
     16 C          -2.0105    0.8750   -4.2340 C.ar    1  UNL11      -0.0611
     17 C          -1.0426    0.3077   -3.4507 C.ar    1  UNL11      -0.0517
     18 C           0.1148    0.9457   -3.0850 C.ar    1  UNL11       0.0205
     19 C           2.9110   -0.8632   -0.3965 C.ar    1  UNL11      -0.0355
     20 C           3.6142    0.3212   -0.6487 C.ar    1  UNL11      -0.0578
     21 C           4.2537    0.5010   -1.8400 C.ar    1  UNL11      -0.0615
     22 C           4.2394   -0.4575   -2.8365 C.ar    1  UNL11      -0.0617
     23 C           3.5632   -1.6159   -2.6147 C.ar    1  UNL11      -0.0615
     24 C           2.9090   -1.8039   -1.3997 C.ar    1  UNL11      -0.0578
     25 H           3.4340   -3.7039    0.1828 H       1  UNL11       0.0230
     26 H           1.6050   -3.5294    0.2899 H       1  UNL11       0.0230
     27 H           2.5489   -4.3724    1.5703 H       1  UNL11       0.0230
     28 H           3.8877   -2.1542    1.7610 H       1  UNL11       0.0273
     29 H           2.3503   -2.3898    2.6254 H       1  UNL11       0.0273
     30 H           2.4323   -0.1390    1.5311 H       1  UNL11       0.0443
     31 H          -0.8921   -1.1567   -0.5801 H       1  UNL11       0.1491
     32 H           1.8486   -1.4859   -1.6619 H       1  UNL11       0.0529
     33 H           0.2497   -1.7012   -2.5018 H       1  UNL11       0.0529
     34 H           3.1994    2.7722   -2.1653 H       1  UNL11       0.4829
     35 H          -0.5351    3.8552   -4.7080 H       1  UNL11       0.0627
     36 H          -2.5994    2.5918   -5.3057 H       1  UNL11       0.0618
     37 H          -2.8863    0.2846   -4.4641 H       1  UNL11       0.0618
     38 H          -1.1815   -0.7001   -3.0905 H       1  UNL11       0.0624
     39 H           3.6658    1.1174    0.0933 H       1  UNL11       0.0620
     40 H           4.7908    1.4082   -2.0298 H       1  UNL11       0.0618
     41 H           4.7461   -0.3246   -3.7912 H       1  UNL11       0.0618
     42 H           3.5356   -2.3920   -3.3868 H       1  UNL11       0.0618
     43 H           2.4014   -2.7509   -1.2934 H       1  UNL11       0.0620
@<TRIPOS>BOND
     1     1     2    1
     2     1    25    1
     3     1    26    1
     4     1    27    1
     5     2     3    1
     6     2    28    1
     7     2    29    1
     8     3     4    1
     9     3    19    1
    10     3    30    1
    11     4     5    2
    12     4     6   am
    13     6     7    1
    14     6    31    1
    15     7     8    1
    16     7    32    1
    17     7    33    1
    18     8     9    2
    19     9    10    1
    20    10    11   am
    21    10    34    1
    22    11    12    2
    23    11    13    1
    24    13    14   ar
    25    14    15   ar
    26    14    35    1
    27    15    16   ar
    28    15    36    1
    29    16    17   ar
    30    16    37    1
    31    17    18   ar
    32    17    38    1
    33    18     8    1
    34    18    13   ar
    35    19    20   ar
    36    20    21   ar
    37    20    39    1
    38    21    22   ar
    39    21    40    1
    40    22    23   ar
    41    22    41    1
    42    23    24   ar
    43    23    42    1
    44    24    19   ar
    45    24    43    1
@<TRIPOS>MOLECULE
*****
 43 45 0 0 0
SMALL
GASTEIGER

@<TRIPOS>ATOM
      1 C           4.3255    0.2768    0.5481 C.3     1  UNL11      -0.0643
      2 C           2.8397    0.2095    0.3510 C.3     1  UNL11      -0.0407
      3 C           2.2342   -1.0473    0.9073 C.3     1  UNL11       0.0603
      4 C           0.7746   -1.1229    0.6974 C.2     1  UNL11       0.2207
      5 O          -0.0033   -1.2055    1.7075 O.2     1  UNL11      -0.2751
      6 N           0.1355   -1.1124   -0.5601 N.am    1  UNL11      -0.3090
      7 C           0.8258   -1.0395   -1.8291 C.3     1  UNL11       0.0602
      8 C           1.0343    0.3140   -2.3005 C.2     1  UNL11       0.1319
      9 N           1.0795    0.5866   -3.6104 N.2     1  UNL11      -0.0060
     10 N           1.2733    1.8462   -4.0407 N.am    1  UNL11      -0.0355
     11 C           1.4299    2.8840   -3.2079 C.2     1  UNL11       0.4383
     12 O           1.6116    4.0646   -3.6118 O.2     1  UNL11      -0.2116
     13 C           1.3928    2.6660   -1.8546 C.ar    1  UNL11       0.1005
     14 C           1.5471    3.6907   -0.9439 C.ar    1  UNL11      -0.0441
     15 C           1.5036    3.4297    0.4093 C.ar    1  UNL11      -0.0608
     16 C           1.3044    2.1356    0.8510 C.ar    1  UNL11      -0.0611
     17 C           1.1551    1.1435   -0.0794 C.ar    1  UNL11      -0.0517
     18 C           1.1912    1.3552   -1.4337 C.ar    1  UNL11       0.0205
     19 C           2.5312   -1.1639    2.3530 C.ar    1  UNL11      -0.0355
     20 C           3.2491   -2.2702    2.8238 C.ar    1  UNL11      -0.0578
     21 C           3.5416   -2.3859    4.1510 C.ar    1  UNL11      -0.0615
     22 C           3.1520   -1.4364    5.0775 C.ar    1  UNL11      -0.0617
     23 C           2.4539   -0.3532    4.6441 C.ar    1  UNL11      -0.0615
     24 C           2.1531   -0.2308    3.2899 C.ar    1  UNL11      -0.0578
     25 H           4.8274   -0.1824   -0.3374 H       1  UNL11       0.0230
     26 H           4.6575   -0.1987    1.4951 H       1  UNL11       0.0230
     27 H           4.6381    1.3392    0.5594 H       1  UNL11       0.0230
     28 H           2.6564    0.2836   -0.7476 H       1  UNL11       0.0273
     29 H           2.4063    1.1268    0.7992 H       1  UNL11       0.0273
     30 H           2.6893   -1.9289    0.3886 H       1  UNL11       0.0443
     31 H          -0.8921   -1.1567   -0.5801 H       1  UNL11       0.1491
     32 H           1.8486   -1.4859   -1.6619 H       1  UNL11       0.0529
     33 H           0.2497   -1.7012   -2.5018 H       1  UNL11       0.0529
     34 H           1.3078    2.0531   -5.0663 H       1  UNL11       0.4829
     35 H           1.7035    4.7067   -1.2734 H       1  UNL11       0.0627
     36 H           1.6188    4.1960    1.1652 H       1  UNL11       0.0618
     37 H           1.2595    1.8612    1.8956 H       1  UNL11       0.0618
     38 H           0.9991    0.1290    0.2542 H       1  UNL11       0.0624
     39 H           3.5865   -3.0550    2.1476 H       1  UNL11       0.0620
     40 H           4.0910   -3.2335    4.5080 H       1  UNL11       0.0618
     41 H           3.3799   -1.5187    6.1393 H       1  UNL11       0.0618
     42 H           2.1329    0.4141    5.3565 H       1  UNL11       0.0618
     43 H           1.6044    0.6592    3.0202 H       1  UNL11       0.0620
@<TRIPOS>BOND
     1     1     2    1
     2     1    25    1
     3     1    26    1
     4     1    27    1
     5     2     3    1
     6     2    28    1
     7     2    29    1
     8     3     4    1
     9     3    19    1
    10     3    30    1
    11     4     5    2
    12     4     6   am
    13     6     7    1
    14     6    31    1
    15     7     8    1
    16     7    32    1
    17     7    33    1
    18     8     9    2
    19     9    10    1
    20    10    11   am
    21    10    34    1
    22    11    12    2
    23    11    13    1
    24    13    14   ar
    25    14    15   ar
    26    14    35    1
    27    15    16   ar
    28    15    36    1
    29    16    17   ar
    30    16    37    1
    31    17    18   ar
    32    17    38    1
    33    18     8    1
    34    18    13   ar
    35    19    20   ar
    36    20    21   ar
    37    20    39    1
    38    21    22   ar
    39    21    40    1
    40    22    23   ar
    41    22    41    1
    42    23    24   ar
    43    23    42    1
    44    24    19   ar
    45    24    43    1
@<TRIPOS>MOLECULE
*****
 43 45 0 0 0
SMALL
GASTEIGER

@<TRIPOS>ATOM
      1 C           2.7347   -0.8421   -1.5347 C.3     1  UNL11      -0.0643
      2 C           2.9385   -0.2657   -0.1645 C.3     1  UNL11      -0.0407
      3 C           2.2342   -1.0473    0.9073 C.3     1  UNL11       0.0603
      4 C           0.7746   -1.1229    0.6974 C.2     1  UNL11       0.2207
      5 O          -0.0033   -1.2055    1.7075 O.2     1  UNL11      -0.2751
      6 N           0.1355   -1.1124   -0.5601 N.am    1  UNL11      -0.3090
      7 C           0.8258   -1.0395   -1.8291 C.3     1  UNL11       0.0602
      8 C           1.1579   -2.3348   -2.3855 C.2     1  UNL11       0.1319
      9 N           1.2215   -2.5184   -3.7100 N.2     1  UNL11      -0.0060
     10 N           1.5307   -3.7244   -4.2193 N.am    1  UNL11      -0.0355
     11 C           1.7886   -4.7935   -3.4541 C.2     1  UNL11       0.4383
     12 O           2.0783   -5.9237   -3.9321 O.2     1  UNL11      -0.2116
     13 C           1.7386   -4.6660   -2.0897 C.ar    1  UNL11       0.1005
     14 C           1.9935   -5.7272   -1.2459 C.ar    1  UNL11      -0.0441
     15 C           1.9330   -5.5577    0.1212 C.ar    1  UNL11      -0.0608
     16 C           1.6153   -4.3187    0.6441 C.ar    1  UNL11      -0.0611
     17 C           1.3684   -3.2881   -0.2214 C.ar    1  UNL11      -0.0517
     18 C           1.4168   -3.4093   -1.5864 C.ar    1  UNL11       0.0205
     19 C           2.5113   -0.4593    2.2374 C.ar    1  UNL11      -0.0355
     20 C           2.1293    0.8616    2.5020 C.ar    1  UNL11      -0.0578
     21 C           2.3662    1.4139    3.7266 C.ar    1  UNL11      -0.0615
     22 C           2.9823    0.7112    4.7456 C.ar    1  UNL11      -0.0617
     23 C           3.3622   -0.5732    4.5124 C.ar    1  UNL11      -0.0615
     24 C           3.1222   -1.1412    3.2637 C.ar    1  UNL11      -0.0578
     25 H           1.8301   -0.3732   -1.9917 H       1  UNL11       0.0230
     26 H           2.6597   -1.9500   -1.5304 H       1  UNL11       0.0230
     27 H           3.5880   -0.5497   -2.1773 H       1  UNL11       0.0230
     28 H           2.5638    0.7852   -0.1978 H       1  UNL11       0.0273
     29 H           4.0325   -0.1987    0.0051 H       1  UNL11       0.0273
     30 H           2.6237   -2.0969    0.9053 H       1  UNL11       0.0443
     31 H          -0.8921   -1.1567   -0.5801 H       1  UNL11       0.1491
     32 H           0.1123   -0.5489   -2.5526 H       1  UNL11       0.0529
     33 H           1.6785   -0.3596   -1.6474 H       1  UNL11       0.0529
     34 H           1.5788   -3.8617   -5.2560 H       1  UNL11       0.4829
     35 H           2.2429   -6.7011   -1.6392 H       1  UNL11       0.0627
     36 H           2.1237   -6.3561    0.8269 H       1  UNL11       0.0618
     37 H           1.5506   -4.1164    1.7040 H       1  UNL11       0.0618
     38 H           1.1193   -2.3161    0.1758 H       1  UNL11       0.0624
     39 H           1.6394    1.4716    1.7437 H       1  UNL11       0.0620
     40 H           2.0727    2.4247    3.9258 H       1  UNL11       0.0618
     41 H           3.1765    1.1420    5.7268 H       1  UNL11       0.0618
     42 H           3.8522   -1.1528    5.3018 H       1  UNL11       0.0618
     43 H           3.4437   -2.1664    3.1563 H       1  UNL11       0.0620
@<TRIPOS>BOND
     1     1     2    1
     2     1    25    1
     3     1    26    1
     4     1    27    1
     5     2     3    1
     6     2    28    1
     7     2    29    1
     8     3     4    1
     9     3    19    1
    10     3    30    1
    11     4     5    2
    12     4     6   am
    13     6     7    1
    14     6    31    1
    15     7     8    1
    16     7    32    1
    17     7    33    1
    18     8     9    2
    19     9    10    1
    20    10    11   am
    21    10    34    1
    22    11    12    2
    23    11    13    1
    24    13    14   ar
    25    14    15   ar
    26    14    35    1
    27    15    16   ar
    28    15    36    1
    29    16    17   ar
    30    16    37    1
    31    17    18   ar
    32    17    38    1
    33    18     8    1
    34    18    13   ar
    35    19    20   ar
    36    20    21   ar
    37    20    39    1
    38    21    22   ar
    39    21    40    1
    40    22    23   ar
    41    22    41    1
    42    23    24   ar
    43    23    42    1
    44    24    19   ar
    45    24    43    1
@<TRIPOS>MOLECULE
*****
 43 45 0 0 0
SMALL
GASTEIGER

@<TRIPOS>ATOM
      1 C           2.7660   -2.0971   -1.2997 C.3     1  UNL11      -0.0643
      2 C           3.0039   -0.9377   -0.3777 C.3     1  UNL11      -0.0407
      3 C           2.2342   -1.0473    0.9073 C.3     1  UNL11       0.0603
      4 C           0.7746   -1.1229    0.6974 C.2     1  UNL11       0.2207
      5 O          -0.0033   -1.2055    1.7075 O.2     1  UNL11      -0.2751
      6 N           0.1355   -1.1124   -0.5601 N.am    1  UNL11      -0.3090
      7 C           0.8258   -1.0395   -1.8291 C.3     1  UNL11       0.0602
      8 C          -0.0615   -1.0278   -2.9737 C.2     1  UNL11       0.1319
      9 N          -0.0660    0.0013   -3.8298 N.2     1  UNL11      -0.0060
     10 N          -0.8929    0.0050   -4.8908 N.am    1  UNL11      -0.0355
     11 C          -1.7445   -0.9954   -5.1535 C.2     1  UNL11       0.4383
     12 O          -2.5195   -0.9914   -6.1482 O.2     1  UNL11      -0.2116
     13 C          -1.7847   -2.0769   -4.3115 C.ar    1  UNL11       0.1005
     14 C          -2.6381   -3.1394   -4.5254 C.ar    1  UNL11      -0.0441
     15 C          -2.6480   -4.2086   -3.6547 C.ar    1  UNL11      -0.0608
     16 C          -1.7984   -4.2121   -2.5649 C.ar    1  UNL11      -0.0611
     17 C          -0.9651   -3.1422   -2.3828 C.ar    1  UNL11      -0.0517
     18 C          -0.9203   -2.0580   -3.2212 C.ar    1  UNL11       0.0205
     19 C           2.5465    0.0980    1.7920 C.ar    1  UNL11      -0.0355
     20 C           3.6036   -0.0024    2.7048 C.ar    1  UNL11      -0.0578
     21 C           3.9121    1.0484    3.5180 C.ar    1  UNL11      -0.0615
     22 C           3.2108    2.2395    3.4818 C.ar    1  UNL11      -0.0617
     23 C           2.1801    2.3606    2.6035 C.ar    1  UNL11      -0.0615
     24 C           1.8618    1.2904    1.7711 C.ar    1  UNL11      -0.0578
     25 H           1.9033   -1.8558   -1.9665 H       1  UNL11       0.0230
     26 H           2.6058   -3.0535   -0.7586 H       1  UNL11       0.0230
     27 H           3.6436   -2.2121   -1.9653 H       1  UNL11       0.0230
     28 H           2.7115   -0.0164   -0.9360 H       1  UNL11       0.0273
     29 H           4.0986   -0.8660   -0.2147 H       1  UNL11       0.0273
     30 H           2.5418   -1.9856    1.4348 H       1  UNL11       0.0443
     31 H          -0.8921   -1.1567   -0.5801 H       1  UNL11       0.1491
     32 H           1.3773   -0.0551   -1.8361 H       1  UNL11       0.0529
     33 H           1.5615   -1.8641   -1.7975 H       1  UNL11       0.0529
     34 H          -0.8918    0.8127   -5.5567 H       1  UNL11       0.4829
     35 H          -3.3077   -3.1513   -5.3720 H       1  UNL11       0.0627
     36 H          -3.2971   -5.0664   -3.7761 H       1  UNL11       0.0618
     37 H          -1.7546   -5.0166   -1.8442 H       1  UNL11       0.0618
     38 H          -0.2973   -3.1342   -1.5350 H       1  UNL11       0.0624
     39 H           4.1973   -0.9124    2.7851 H       1  UNL11       0.0620
     40 H           4.7214    0.9684    4.2153 H       1  UNL11       0.0618
     41 H           3.4482    3.0846    4.1263 H       1  UNL11       0.0618
     42 H           1.6078    3.2929    2.5538 H       1  UNL11       0.0618
     43 H           1.0378    1.4640    1.0952 H       1  UNL11       0.0620
@<TRIPOS>BOND
     1     1     2    1
     2     1    25    1
     3     1    26    1
     4     1    27    1
     5     2     3    1
     6     2    28    1
     7     2    29    1
     8     3     4    1
     9     3    19    1
    10     3    30    1
    11     4     5    2
    12     4     6   am
    13     6     7    1
    14     6    31    1
    15     7     8    1
    16     7    32    1
    17     7    33    1
    18     8     9    2
    19     9    10    1
    20    10    11   am
    21    10    34    1
    22    11    12    2
    23    11    13    1
    24    13    14   ar
    25    14    15   ar
    26    14    35    1
    27    15    16   ar
    28    15    36    1
    29    16    17   ar
    30    16    37    1
    31    17    18   ar
    32    17    38    1
    33    18     8    1
    34    18    13   ar
    35    19    20   ar
    36    20    21   ar
    37    20    39    1
    38    21    22   ar
    39    21    40    1
    40    22    23   ar
    41    22    41    1
    42    23    24   ar
    43    23    42    1
    44    24    19   ar
    45    24    43    1
@<TRIPOS>MOLECULE
*****
 43 45 0 0 0
SMALL
GASTEIGER

@<TRIPOS>ATOM
      1 C           4.0875   -0.2958    2.4094 C.3     1  UNL11      -0.0643
      2 C           2.6040   -0.3890    2.2056 C.3     1  UNL11      -0.0407
      3 C           2.2342   -1.0473    0.9073 C.3     1  UNL11       0.0603
      4 C           0.7746   -1.1229    0.6974 C.2     1  UNL11       0.2207
      5 O          -0.0033   -1.2055    1.7075 O.2     1  UNL11      -0.2751
      6 N           0.1355   -1.1124   -0.5601 N.am    1  UNL11      -0.3090
      7 C           0.8258   -1.0395   -1.8291 C.3     1  UNL11       0.0602
      8 C           1.7267   -2.1486   -2.0653 C.2     1  UNL11       0.1319
      9 N           1.8701   -3.1231   -1.1587 N.2     1  UNL11      -0.0060
     10 N           2.7088   -4.1502   -1.3853 N.am    1  UNL11      -0.0355
     11 C           3.4369   -4.2623   -2.5044 C.2     1  UNL11       0.4383
     12 O           4.2229   -5.2252   -2.7162 O.2     1  UNL11      -0.2116
     13 C           3.3317   -3.2940   -3.4696 C.ar    1  UNL11       0.1005
     14 C           4.0533   -3.3500   -4.6439 C.ar    1  UNL11      -0.0441
     15 C           3.9191   -2.3558   -5.5899 C.ar    1  UNL11      -0.0608
     16 C           3.0575   -1.3008   -5.3568 C.ar    1  UNL11      -0.0611
     17 C           2.3572   -1.2766   -4.1815 C.ar    1  UNL11      -0.0517
     18 C           2.4581   -2.2417   -3.2127 C.ar    1  UNL11       0.0205
     19 C           2.8134   -2.4080    0.8385 C.ar    1  UNL11      -0.0355
     20 C           2.1479   -3.4065    0.1168 C.ar    1  UNL11      -0.0578
     21 C           2.6748   -4.6619    0.0333 C.ar    1  UNL11      -0.0615
     22 C           3.8673   -5.0031    0.6444 C.ar    1  UNL11      -0.0617
     23 C           4.5319   -4.0503    1.3508 C.ar    1  UNL11      -0.0615
     24 C           3.9977   -2.7672    1.4385 C.ar    1  UNL11      -0.0578
     25 H           4.4492    0.6716    1.9848 H       1  UNL11       0.0230
     26 H           4.6376   -1.1591    1.9793 H       1  UNL11       0.0230
     27 H           4.2981   -0.2502    3.4957 H       1  UNL11       0.0230
     28 H           2.2066    0.6533    2.2472 H       1  UNL11       0.0273
     29 H           2.1832   -0.9157    3.0863 H       1  UNL11       0.0273
     30 H           2.6594   -0.4474    0.0631 H       1  UNL11       0.0443
     31 H          -0.8921   -1.1567   -0.5801 H       1  UNL11       0.1491
     32 H           0.0308   -1.0915   -2.6281 H       1  UNL11       0.0529
     33 H           1.2849   -0.0338   -1.8428 H       1  UNL11       0.0529
     34 H           2.8166   -4.9092   -0.6724 H       1  UNL11       0.4829
     35 H           4.7303   -4.1676   -4.8405 H       1  UNL11       0.0627
     36 H           4.4611   -2.3514   -6.5269 H       1  UNL11       0.0618
     37 H           2.9045   -0.4893   -6.0543 H       1  UNL11       0.0618
     38 H           1.6815   -0.4575   -3.9889 H       1  UNL11       0.0624
     39 H           1.2041   -3.2052   -0.3889 H       1  UNL11       0.0620
     40 H           2.1632   -5.4235   -0.5196 H       1  UNL11       0.0618
     41 H           4.2971   -6.0020    0.5845 H       1  UNL11       0.0618
     42 H           5.4785   -4.2933    1.8448 H       1  UNL11       0.0618
     43 H           4.5855   -2.0632    2.0083 H       1  UNL11       0.0620
@<TRIPOS>BOND
     1     1     2    1
     2     1    25    1
     3     1    26    1
     4     1    27    1
     5     2     3    1
     6     2    28    1
     7     2    29    1
     8     3     4    1
     9     3    19    1
    10     3    30    1
    11     4     5    2
    12     4     6   am
    13     6     7    1
    14     6    31    1
    15     7     8    1
    16     7    32    1
    17     7    33    1
    18     8     9    2
    19     9    10    1
    20    10    11   am
    21    10    34    1
    22    11    12    2
    23    11    13    1
    24    13    14   ar
    25    14    15   ar
    26    14    35    1
    27    15    16   ar
    28    15    36    1
    29    16    17   ar
    30    16    37    1
    31    17    18   ar
    32    17    38    1
    33    18     8    1
    34    18    13   ar
    35    19    20   ar
    36    20    21   ar
    37    20    39    1
    38    21    22   ar
    39    21    40    1
    40    22    23   ar
    41    22    41    1
    42    23    24   ar
    43    23    42    1
    44    24    19   ar
    45    24    43    1
@<TRIPOS>MOLECULE
*****
 43 45 0 0 0
SMALL
GASTEIGER

@<TRIPOS>ATOM
      1 C           2.5606   -3.5266    0.8556 C.3     1  UNL11      -0.0643
      2 C           2.7855   -2.2521    1.6146 C.3     1  UNL11      -0.0407
      3 C           2.2342   -1.0473    0.9073 C.3     1  UNL11       0.0603
      4 C           0.7746   -1.1229    0.6974 C.2     1  UNL11       0.2207
      5 O          -0.0033   -1.2055    1.7075 O.2     1  UNL11      -0.2751
      6 N           0.1355   -1.1124   -0.5601 N.am    1  UNL11      -0.3090
      7 C          -1.2962   -1.1878   -0.7519 C.3     1  UNL11       0.0602
      8 C          -1.7942   -2.5411   -0.8869 C.2     1  UNL11       0.1319
      9 N          -3.0971   -2.7780   -1.0828 N.2     1  UNL11      -0.0060
     10 N          -3.5521   -4.0377   -1.2074 N.am    1  UNL11      -0.0355
     11 C          -2.7517   -5.1104   -1.1451 C.2     1  UNL11       0.4383
     12 O          -3.1788   -6.2910   -1.2619 O.2     1  UNL11      -0.2116
     13 C          -1.4071   -4.9299   -0.9460 C.ar    1  UNL11       0.1005
     14 C          -0.5293   -5.9915   -0.8723 C.ar    1  UNL11      -0.0441
     15 C           0.8163   -5.7676   -0.6709 C.ar    1  UNL11      -0.0608
     16 C           1.2834   -4.4734   -0.5429 C.ar    1  UNL11      -0.0611
     17 C           0.3854   -3.4440   -0.6211 C.ar    1  UNL11      -0.0517
     18 C          -0.9601   -3.6181   -0.8201 C.ar    1  UNL11       0.0205
     19 C           2.9110   -0.8632   -0.3965 C.ar    1  UNL11      -0.0355
     20 C           4.2361   -1.2879   -0.5531 C.ar    1  UNL11      -0.0578
     21 C           4.8696   -1.1369   -1.7516 C.ar    1  UNL11      -0.0615
     22 C           4.2476   -0.5687   -2.8480 C.ar    1  UNL11      -0.0617
     23 C           2.9608   -0.1487   -2.7202 C.ar    1  UNL11      -0.0615
     24 C           2.3100   -0.3012   -1.4984 C.ar    1  UNL11      -0.0578
     25 H           3.4340   -3.7039    0.1828 H       1  UNL11       0.0230
     26 H           1.6050   -3.5294    0.2899 H       1  UNL11       0.0230
     27 H           2.5489   -4.3724    1.5703 H       1  UNL11       0.0230
     28 H           3.8877   -2.1542    1.7610 H       1  UNL11       0.0273
     29 H           2.3503   -2.3898    2.6254 H       1  UNL11       0.0273
     30 H           2.4323   -0.1390    1.5311 H       1  UNL11       0.0443
     31 H           0.7248   -1.0497   -1.4010 H       1  UNL11       0.1491
     32 H          -1.7658   -0.7609    0.1811 H       1  UNL11       0.0529
     33 H          -1.5028   -0.5108   -1.6012 H       1  UNL11       0.0529
     34 H          -4.5721   -4.2166   -1.3605 H       1  UNL11       0.4829
     35 H          -0.8789   -7.0081   -0.9702 H       1  UNL11       0.0627
     36 H           1.5468   -6.5638   -0.6053 H       1  UNL11       0.0618
     37 H           2.3238   -4.2269   -0.3838 H       1  UNL11       0.0618
     38 H           0.7390   -2.4292   -0.5226 H       1  UNL11       0.0624
     39 H           4.7851   -1.7439    0.2702 H       1  UNL11       0.0620
     40 H           5.8834   -1.4629   -1.8681 H       1  UNL11       0.0618
     41 H           4.7436   -0.4431   -3.8093 H       1  UNL11       0.0618
     42 H           2.4440    0.3048   -3.5725 H       1  UNL11       0.0618
     43 H           1.2884    0.0476   -1.4759 H       1  UNL11       0.0620
@<TRIPOS>BOND
     1     1     2    1
     2     1    25    1
     3     1    26    1
     4     1    27    1
     5     2     3    1
     6     2    28    1
     7     2    29    1
     8     3     4    1
     9     3    19    1
    10     3    30    1
    11     4     5    2
    12     4     6   am
    13     6     7    1
    14     6    31    1
    15     7     8    1
    16     7    32    1
    17     7    33    1
    18     8     9    2
    19     9    10    1
    20    10    11   am
    21    10    34    1
    22    11    12    2
    23    11    13    1
    24    13    14   ar
    25    14    15   ar
    26    14    35    1
    27    15    16   ar
    28    15    36    1
    29    16    17   ar
    30    16    37    1
    31    17    18   ar
    32    17    38    1
    33    18     8    1
    34    18    13   ar
    35    19    20   ar
    36    20    21   ar
    37    20    39    1
    38    21    22   ar
    39    21    40    1
    40    22    23   ar
    41    22    41    1
    42    23    24   ar
    43    23    42    1
    44    24    19   ar
    45    24    43    1
@<TRIPOS>MOLECULE
*****
 43 45 0 0 0
SMALL
GASTEIGER

@<TRIPOS>ATOM
      1 C           2.5606   -3.5266    0.8556 C.3     1  UNL11      -0.0643
      2 C           2.7855   -2.2521    1.6146 C.3     1  UNL11      -0.0407
      3 C           2.2342   -1.0473    0.9073 C.3     1  UNL11       0.0603
      4 C           0.7746   -1.1229    0.6974 C.2     1  UNL11       0.2207
      5 O          -0.0033   -1.2055    1.7075 O.2     1  UNL11      -0.2751
      6 N           0.1355   -1.1124   -0.5601 N.am    1  UNL11      -0.3090
      7 C          -1.2962   -1.1878   -0.7519 C.3     1  UNL11       0.0602
      8 C          -2.0227   -0.0930   -0.1426 C.2     1  UNL11       0.1319
      9 N          -3.3575   -0.0257   -0.2206 N.2     1  UNL11      -0.0060
     10 N          -4.0254    0.9941    0.3480 N.am    1  UNL11      -0.0355
     11 C          -3.4143    1.9841    1.0125 C.2     1  UNL11       0.4383
     12 O          -4.0409    2.9399    1.5452 O.2     1  UNL11      -0.2116
     13 C          -2.0478    1.9688    1.1255 C.ar    1  UNL11       0.1005
     14 C          -1.3579    2.9573    1.7962 C.ar    1  UNL11      -0.0441
     15 C           0.0170    2.9054    1.8873 C.ar    1  UNL11      -0.0608
     16 C           0.7028    1.8576    1.3031 C.ar    1  UNL11      -0.0611
     17 C          -0.0127    0.8943    0.6457 C.ar    1  UNL11      -0.0517
     18 C          -1.3790    0.9041    0.5293 C.ar    1  UNL11       0.0205
     19 C           2.9110   -0.8632   -0.3965 C.ar    1  UNL11      -0.0355
     20 C           4.2361   -1.2879   -0.5531 C.ar    1  UNL11      -0.0578
     21 C           4.8696   -1.1369   -1.7516 C.ar    1  UNL11      -0.0615
     22 C           4.2476   -0.5687   -2.8480 C.ar    1  UNL11      -0.0617
     23 C           2.9608   -0.1487   -2.7202 C.ar    1  UNL11      -0.0615
     24 C           2.3100   -0.3012   -1.4984 C.ar    1  UNL11      -0.0578
     25 H           3.4340   -3.7039    0.1828 H       1  UNL11       0.0230
     26 H           1.6050   -3.5294    0.2899 H       1  UNL11       0.0230
     27 H           2.5489   -4.3724    1.5703 H       1  UNL11       0.0230
     28 H           3.8877   -2.1542    1.7610 H       1  UNL11       0.0273
     29 H           2.3503   -2.3898    2.6254 H       1  UNL11       0.0273
     30 H           2.4323   -0.1390    1.5311 H       1  UNL11       0.0443
     31 H           0.7248   -1.0497   -1.4010 H       1  UNL11       0.1491
     32 H          -1.4733   -1.1155   -1.8639 H       1  UNL11       0.0529
     33 H          -1.5736   -2.2013   -0.4081 H       1  UNL11       0.0529
     34 H          -5.0692    1.0413    0.2835 H       1  UNL11       0.4829
     35 H          -1.8794    3.7822    2.2576 H       1  UNL11       0.0627
     36 H           0.6061    3.6542    2.4012 H       1  UNL11       0.0618
     37 H           1.7784    1.7553    1.3365 H       1  UNL11       0.0618
     38 H           0.5125    0.0713    0.1856 H       1  UNL11       0.0624
     39 H           4.7851   -1.7439    0.2702 H       1  UNL11       0.0620
     40 H           5.8834   -1.4629   -1.8681 H       1  UNL11       0.0618
     41 H           4.7436   -0.4431   -3.8093 H       1  UNL11       0.0618
     42 H           2.4440    0.3048   -3.5725 H       1  UNL11       0.0618
     43 H           1.2884    0.0476   -1.4759 H       1  UNL11       0.0620
@<TRIPOS>BOND
     1     1     2    1
     2     1    25    1
     3     1    26    1
     4     1    27    1
     5     2     3    1
     6     2    28    1
     7     2    29    1
     8     3     4    1
     9     3    19    1
    10     3    30    1
    11     4     5    2
    12     4     6   am
    13     6     7    1
    14     6    31    1
    15     7     8    1
    16     7    32    1
    17     7    33    1
    18     8     9    2
    19     9    10    1
    20    10    11   am
    21    10    34    1
    22    11    12    2
    23    11    13    1
    24    13    14   ar
    25    14    15   ar
    26    14    35    1
    27    15    16   ar
    28    15    36    1
    29    16    17   ar
    30    16    37    1
    31    17    18   ar
    32    17    38    1
    33    18     8    1
    34    18    13   ar
    35    19    20   ar
    36    20    21   ar
    37    20    39    1
    38    21    22   ar
    39    21    40    1
    40    22    23   ar
    41    22    41    1
    42    23    24   ar
    43    23    42    1
    44    24    19   ar
    45    24    43    1
@<TRIPOS>MOLECULE
*****
 43 45 0 0 0
SMALL
GASTEIGER

@<TRIPOS>ATOM
      1 C           2.7727   -0.9861   -1.5345 C.3     1  UNL11      -0.0643
      2 C           3.0183   -1.6609   -0.2172 C.3     1  UNL11      -0.0407
      3 C           2.2342   -1.0473    0.9073 C.3     1  UNL11       0.0603
      4 C           0.7746   -1.1229    0.6974 C.2     1  UNL11       0.2207
      5 O          -0.0033   -1.2055    1.7075 O.2     1  UNL11      -0.2751
      6 N           0.1355   -1.1124   -0.5601 N.am    1  UNL11      -0.3090
      7 C           0.8258   -1.0395   -1.8291 C.3     1  UNL11       0.0602
      8 C           0.4677    0.1198   -2.6199 C.2     1  UNL11       0.1319
      9 N           1.1473    1.2674   -2.5047 N.2     1  UNL11      -0.0060
     10 N           0.8088    2.3399   -3.2426 N.am    1  UNL11      -0.0355
     11 C          -0.2047    2.3303   -4.1188 C.2     1  UNL11       0.4383
     12 O          -0.5216    3.3359   -4.8103 O.2     1  UNL11      -0.2116
     13 C          -0.9373    1.1824   -4.2802 C.ar    1  UNL11       0.1005
     14 C          -1.9927    1.1063   -5.1653 C.ar    1  UNL11      -0.0441
     15 C          -2.7047   -0.0670   -5.2980 C.ar    1  UNL11      -0.0608
     16 C          -2.3568   -1.1686   -4.5398 C.ar    1  UNL11      -0.0611
     17 C          -1.3048   -1.0584   -3.6718 C.ar    1  UNL11      -0.0517
     18 C          -0.5685    0.0865   -3.5061 C.ar    1  UNL11       0.0205
     19 C           2.6323    0.3657    1.0994 C.ar    1  UNL11      -0.0355
     20 C           3.9646    0.6732    1.4013 C.ar    1  UNL11      -0.0578
     21 C           4.3499    1.9708    1.5688 C.ar    1  UNL11      -0.0615
     22 C           3.4625    3.0246    1.4512 C.ar    1  UNL11      -0.0617
     23 C           2.1633    2.7509    1.1584 C.ar    1  UNL11      -0.0615
     24 C           1.7654    1.4274    0.9862 C.ar    1  UNL11      -0.0578
     25 H           3.5157   -0.1622   -1.6610 H       1  UNL11       0.0230
     26 H           1.7318   -0.6144   -1.6419 H       1  UNL11       0.0230
     27 H           2.9747   -1.7074   -2.3502 H       1  UNL11       0.0230
     28 H           4.1144   -1.5911   -0.0184 H       1  UNL11       0.0273
     29 H           2.7968   -2.7391   -0.3533 H       1  UNL11       0.0273
     30 H           2.4619   -1.6022    1.8526 H       1  UNL11       0.0443
     31 H          -0.8921   -1.1567   -0.5801 H       1  UNL11       0.1491
     32 H           1.9242   -0.9420   -1.5895 H       1  UNL11       0.0529
     33 H           0.6466   -2.0215   -2.3042 H       1  UNL11       0.0529
     34 H           1.3441    3.2346   -3.1480 H       1  UNL11       0.4829
     35 H          -2.2766    1.9582   -5.7644 H       1  UNL11       0.0627
     36 H          -3.5403   -0.1802   -5.9769 H       1  UNL11       0.0618
     37 H          -2.8713   -2.1177   -4.5940 H       1  UNL11       0.0618
     38 H          -1.0242   -1.9123   -3.0745 H       1  UNL11       0.0624
     39 H           4.7155   -0.1090    1.5081 H       1  UNL11       0.0620
     40 H           5.3699    2.2027    1.7997 H       1  UNL11       0.0618
     41 H           3.7590    4.0642    1.5829 H       1  UNL11       0.0618
     42 H           1.4392    3.5663    1.0593 H       1  UNL11       0.0618
     43 H           0.7215    1.2892    0.7475 H       1  UNL11       0.0620
@<TRIPOS>BOND
     1     1     2    1
     2     1    25    1
     3     1    26    1
     4     1    27    1
     5     2     3    1
     6     2    28    1
     7     2    29    1
     8     3     4    1
     9     3    19    1
    10     3    30    1
    11     4     5    2
    12     4     6   am
    13     6     7    1
    14     6    31    1
    15     7     8    1
    16     7    32    1
    17     7    33    1
    18     8     9    2
    19     9    10    1
    20    10    11   am
    21    10    34    1
    22    11    12    2
    23    11    13    1
    24    13    14   ar
    25    14    15   ar
    26    14    35    1
    27    15    16   ar
    28    15    36    1
    29    16    17   ar
    30    16    37    1
    31    17    18   ar
    32    17    38    1
    33    18     8    1
    34    18    13   ar
    35    19    20   ar
    36    20    21   ar
    37    20    39    1
    38    21    22   ar
    39    21    40    1
    40    22    23   ar
    41    22    41    1
    42    23    24   ar
    43    23    42    1
    44    24    19   ar
    45    24    43    1
@<TRIPOS>MOLECULE
*****
 43 45 0 0 0
SMALL
GASTEIGER

@<TRIPOS>ATOM
      1 C           2.1839   -2.3405    3.0476 C.3     1  UNL11      -0.0643
      2 C           2.6177   -1.0801    2.3591 C.3     1  UNL11      -0.0407
      3 C           2.2342   -1.0473    0.9073 C.3     1  UNL11       0.0603
      4 C           0.7746   -1.1229    0.6974 C.2     1  UNL11       0.2207
      5 O          -0.0033   -1.2055    1.7075 O.2     1  UNL11      -0.2751
      6 N           0.1355   -1.1124   -0.5601 N.am    1  UNL11      -0.3090
      7 C           0.8258   -1.0395   -1.8291 C.3     1  UNL11       0.0602
      8 C           1.0343    0.3140   -2.3005 C.2     1  UNL11       0.1319
      9 N           1.7533    1.1880   -1.5856 N.2     1  UNL11      -0.0060
     10 N           1.9427    2.4435   -2.0300 N.am    1  UNL11      -0.0355
     11 C           1.4370    2.8900   -3.1876 C.2     1  UNL11       0.4383
     12 O           1.6148    4.0669   -3.6037 O.2     1  UNL11      -0.2116
     13 C           0.6916    2.0396   -3.9632 C.ar    1  UNL11       0.1005
     14 C           0.1431    2.4367   -5.1650 C.ar    1  UNL11      -0.0441
     15 C          -0.6006    1.5508   -5.9156 C.ar    1  UNL11      -0.0608
     16 C          -0.7949    0.2612   -5.4588 C.ar    1  UNL11      -0.0611
     17 C          -0.2367   -0.0992   -4.2627 C.ar    1  UNL11      -0.0517
     18 C           0.5095    0.7464   -3.4828 C.ar    1  UNL11       0.0205
     19 C           2.8954   -2.1522    0.1766 C.ar    1  UNL11      -0.0355
     20 C           3.7366   -3.0322    0.8687 C.ar    1  UNL11      -0.0578
     21 C           4.3432   -4.0627    0.2125 C.ar    1  UNL11      -0.0615
     22 C           4.1611   -4.2845   -1.1401 C.ar    1  UNL11      -0.0617
     23 C           3.3487   -3.4433   -1.8334 C.ar    1  UNL11      -0.0615
     24 C           2.7270   -2.3899   -1.1674 C.ar    1  UNL11      -0.0578
     25 H           3.0024   -3.0958    2.9654 H       1  UNL11       0.0230
     26 H           1.2237   -2.7379    2.6562 H       1  UNL11       0.0230
     27 H           2.0650   -2.1356    4.1294 H       1  UNL11       0.0230
     28 H           3.7257   -1.0134    2.4764 H       1  UNL11       0.0273
     29 H           2.1944   -0.2298    2.9317 H       1  UNL11       0.0273
     30 H           2.5830   -0.0810    0.4623 H       1  UNL11       0.0443
     31 H          -0.8921   -1.1567   -0.5801 H       1  UNL11       0.1491
     32 H           1.8486   -1.4859   -1.6619 H       1  UNL11       0.0529
     33 H           0.2497   -1.7012   -2.5018 H       1  UNL11       0.0529
     34 H           2.5060    3.1224   -1.4665 H       1  UNL11       0.4829
     35 H           0.2860    3.4406   -5.5352 H       1  UNL11       0.0627
     36 H          -1.0526    1.8108   -6.8643 H       1  UNL11       0.0618
     37 H          -1.3660   -0.4831   -5.9959 H       1  UNL11       0.0618
     38 H          -0.3820   -1.1038   -3.8961 H       1  UNL11       0.0624
     39 H           3.9234   -2.9147    1.9356 H       1  UNL11       0.0620
     40 H           4.9861   -4.7341    0.7448 H       1  UNL11       0.0618
     41 H           4.6404   -5.1038   -1.6741 H       1  UNL11       0.0618
     42 H           3.1868   -3.5958   -2.9056 H       1  UNL11       0.0618
     43 H           2.0908   -1.7703   -1.7815 H       1  UNL11       0.0620
@<TRIPOS>BOND
     1     1     2    1
     2     1    25    1
     3     1    26    1
     4     1    27    1
     5     2     3    1
     6     2    28    1
     7     2    29    1
     8     3     4    1
     9     3    19    1
    10     3    30    1
    11     4     5    2
    12     4     6   am
    13     6     7    1
    14     6    31    1
    15     7     8    1
    16     7    32    1
    17     7    33    1
    18     8     9    2
    19     9    10    1
    20    10    11   am
    21    10    34    1
    22    11    12    2
    23    11    13    1
    24    13    14   ar
    25    14    15   ar
    26    14    35    1
    27    15    16   ar
    28    15    36    1
    29    16    17   ar
    30    16    37    1
    31    17    18   ar
    32    17    38    1
    33    18     8    1
    34    18    13   ar
    35    19    20   ar
    36    20    21   ar
    37    20    39    1
    38    21    22   ar
    39    21    40    1
    40    22    23   ar
    41    22    41    1
    42    23    24   ar
    43    23    42    1
    44    24    19   ar
    45    24    43    1
