@<TRIPOS>MOLECULE
*****
 48 51 0 0 0
SMALL
GASTEIGER

@<TRIPOS>ATOM
      1 O           5.1412    3.4821   -0.5918 O.2     1  UNL11      -0.2679
      2 C           4.5063    2.5650   -0.0403 C.2     1  UNL11       0.2706
      3 N           3.7412    2.8430    1.1222 N.am    1  UNL11      -0.1481
      4 F           3.0562    1.8478    1.7397 F       1  UNL11      -0.1090
      5 C           4.5481    1.2163   -0.5817 C.ar    1  UNL11       0.0395
      6 C           5.5946    0.6706   -1.2675 C.ar    1  UNL11      -0.0495
      7 C           5.5079   -0.6391   -1.7470 C.ar    1  UNL11      -0.0605
      8 C           4.3904   -1.4056   -1.5487 C.ar    1  UNL11      -0.0540
      9 C           3.3254   -0.8772   -0.8617 C.ar    1  UNL11      -0.0172
     10 C           2.1192   -1.6859   -0.6550 C.ar    1  UNL11      -0.0176
     11 C           1.9911   -2.9747   -1.1215 C.ar    1  UNL11      -0.0540
     12 C           0.8134   -3.6866   -0.9033 C.ar    1  UNL11      -0.0609
     13 C          -0.2436   -3.1264   -0.2219 C.ar    1  UNL11      -0.0582
     14 C          -0.1224   -1.8466    0.2446 C.ar    1  UNL11      -0.0408
     15 C          -1.2134   -1.1314    0.9887 C.3     1  UNL11       0.0208
     16 C          -1.6349    0.0883    0.2939 C.2     1  UNL11       0.1150
     17 N          -1.0544    1.2775    0.5421 N.2     1  UNL11      -0.0076
     18 N          -1.4301    2.3942   -0.0618 N.am    1  UNL11      -0.0358
     19 C          -2.4278    2.4160   -0.9744 C.2     1  UNL11       0.4340
     20 O          -2.8021    3.4770   -1.5639 O.2     1  UNL11      -0.2120
     21 C          -3.0439    1.1999   -1.2491 C.2     1  UNL11       0.0740
     22 C          -2.6477    0.0417   -0.6167 C.2     1  UNL11      -0.0072
     23 C          -3.3163   -1.2476   -0.9305 C.3     1  UNL11      -0.0252
     24 C          -3.4739   -1.3380   -2.4429 C.3     1  UNL11      -0.0487
     25 C          -3.8807   -0.0847   -3.1041 C.3     1  UNL11      -0.0484
     26 C          -4.1545    1.0858   -2.2267 C.3     1  UNL11      -0.0176
     27 C           1.0423   -1.1485    0.0263 C.ar    1  UNL11      -0.0505
     28 C           3.4241    0.4114   -0.3955 C.ar    1  UNL11      -0.0418
     29 H           3.7227    3.8192    1.4752 H       1  UNL11       0.1882
     30 H           6.4823    1.2615   -1.4306 H       1  UNL11       0.0625
     31 H           6.3521   -1.0308   -2.2815 H       1  UNL11       0.0618
     32 H           4.3566   -2.3993   -1.9272 H       1  UNL11       0.0624
     33 H           2.8254   -3.4058   -1.6539 H       1  UNL11       0.0624
     34 H           0.7419   -4.6914   -1.2793 H       1  UNL11       0.0618
     35 H          -1.1685   -3.6666   -0.0435 H       1  UNL11       0.0620
     36 H          -2.0239   -1.8669    1.1247 H       1  UNL11       0.0379
     37 H          -0.8718   -0.8439    2.0046 H       1  UNL11       0.0379
     38 H          -0.9545    3.2926    0.1619 H       1  UNL11       0.4828
     39 H          -4.3039   -1.3408   -0.4344 H       1  UNL11       0.0314
     40 H          -2.6924   -2.1269   -0.6618 H       1  UNL11       0.0314
     41 H          -4.1494   -2.2006   -2.6353 H       1  UNL11       0.0268
     42 H          -2.4728   -1.6497   -2.8608 H       1  UNL11       0.0268
     43 H          -3.1277    0.2522   -3.8749 H       1  UNL11       0.0269
     44 H          -4.8046   -0.2790   -3.7249 H       1  UNL11       0.0269
     45 H          -5.0995    0.9974   -1.6446 H       1  UNL11       0.0316
     46 H          -4.2040    1.9901   -2.8674 H       1  UNL11       0.0316
     47 H           1.1371   -0.1266    0.3993 H       1  UNL11       0.0626
     48 H           2.5825    0.8181    0.1438 H       1  UNL11       0.0631
@<TRIPOS>BOND
     1     1     2    2
     2     2     3   am
     3     2     5    1
     4     3     4    1
     5     3    29    1
     6     5     6   ar
     7     6     7   ar
     8     6    30    1
     9     7     8   ar
    10     7    31    1
    11     8     9   ar
    12     8    32    1
    13     9    10    1
    14     9    28   ar
    15    10    11   ar
    16    11    12   ar
    17    11    33    1
    18    12    13   ar
    19    12    34    1
    20    13    14   ar
    21    13    35    1
    22    14    15    1
    23    14    27   ar
    24    15    16    1
    25    15    36    1
    26    15    37    1
    27    16    17    2
    28    17    18    1
    29    18    19   am
    30    18    38    1
    31    19    20    2
    32    19    21    1
    33    21    22    2
    34    22    23    1
    35    22    16    1
    36    23    24    1
    37    23    39    1
    38    23    40    1
    39    24    25    1
    40    24    41    1
    41    24    42    1
    42    25    26    1
    43    25    43    1
    44    25    44    1
    45    26    21    1
    46    26    45    1
    47    26    46    1
    48    27    10   ar
    49    27    47    1
    50    28     5   ar
    51    28    48    1
@<TRIPOS>MOLECULE
*****
 48 51 0 0 0
SMALL
GASTEIGER

@<TRIPOS>ATOM
      1 O           7.0976    0.0292   -3.6426 O.2     1  UNL11      -0.2679
      2 C           6.0498   -0.5945   -3.3946 C.2     1  UNL11       0.2706
      3 N           5.5985   -1.5928   -4.2968 N.am    1  UNL11      -0.1481
      4 F           6.3068   -1.8629   -5.4221 F       1  UNL11      -0.1090
      5 C           5.2911   -0.3027   -2.1891 C.ar    1  UNL11       0.0395
      6 C           5.6234    0.6317   -1.2514 C.ar    1  UNL11      -0.0495
      7 C           4.8132    0.8111   -0.1270 C.ar    1  UNL11      -0.0605
      8 C           3.6790    0.0688    0.0686 C.ar    1  UNL11      -0.0540
      9 C           3.3254   -0.8772   -0.8617 C.ar    1  UNL11      -0.0172
     10 C           2.1192   -1.6859   -0.6550 C.ar    1  UNL11      -0.0176
     11 C           1.9911   -2.9747   -1.1215 C.ar    1  UNL11      -0.0540
     12 C           0.8134   -3.6866   -0.9033 C.ar    1  UNL11      -0.0609
     13 C          -0.2436   -3.1264   -0.2219 C.ar    1  UNL11      -0.0582
     14 C          -0.1224   -1.8466    0.2446 C.ar    1  UNL11      -0.0408
     15 C          -1.2134   -1.1314    0.9887 C.3     1  UNL11       0.0208
     16 C          -1.1116   -1.3418    2.4356 C.2     1  UNL11       0.1150
     17 N          -1.1631   -2.5747    2.9741 N.2     1  UNL11      -0.0076
     18 N          -1.0895   -2.7865    4.2789 N.am    1  UNL11      -0.0358
     19 C          -0.9566   -1.7730    5.1642 C.2     1  UNL11       0.4340
     20 O          -0.8843   -1.9564    6.4190 O.2     1  UNL11      -0.2120
     21 C          -0.9006   -0.4889    4.6332 C.2     1  UNL11       0.0740
     22 C          -0.9779   -0.2760    3.2742 C.2     1  UNL11      -0.0072
     23 C          -0.9098    1.1044    2.7288 C.3     1  UNL11      -0.0252
     24 C           0.2104    1.8400    3.4530 C.3     1  UNL11      -0.0487
     25 C           0.2887    1.5858    4.9030 C.3     1  UNL11      -0.0484
     26 C          -0.7602    0.7113    5.4947 C.3     1  UNL11      -0.0176
     27 C           1.0423   -1.1485    0.0263 C.ar    1  UNL11      -0.0505
     28 C           4.1306   -1.0429   -1.9625 C.ar    1  UNL11      -0.0418
     29 H           4.7205   -2.0981   -4.0697 H       1  UNL11       0.1882
     30 H           6.5132    1.2252   -1.3920 H       1  UNL11       0.0625
     31 H           5.1095    1.5556    0.5869 H       1  UNL11       0.0618
     32 H           3.0843    0.2302    0.9358 H       1  UNL11       0.0624
     33 H           2.8254   -3.4058   -1.6539 H       1  UNL11       0.0624
     34 H           0.7419   -4.6914   -1.2793 H       1  UNL11       0.0618
     35 H          -1.1685   -3.6666   -0.0435 H       1  UNL11       0.0620
     36 H          -1.1449   -0.0723    0.6887 H       1  UNL11       0.0379
     37 H          -2.2113   -1.4901    0.6618 H       1  UNL11       0.0379
     38 H          -1.1351   -3.7570    4.6524 H       1  UNL11       0.4828
     39 H          -1.8679    1.6508    2.8465 H       1  UNL11       0.0314
     40 H          -0.6112    1.1250    1.6587 H       1  UNL11       0.0314
     41 H           0.1079    2.9130    3.1782 H       1  UNL11       0.0268
     42 H           1.1811    1.5075    2.9827 H       1  UNL11       0.0268
     43 H           1.2862    1.1516    5.2046 H       1  UNL11       0.0269
     44 H           0.2694    2.5735    5.4514 H       1  UNL11       0.0269
     45 H          -1.7621    1.1930    5.5565 H       1  UNL11       0.0316
     46 H          -0.4307    0.4228    6.5140 H       1  UNL11       0.0316
     47 H           1.1371   -0.1266    0.3993 H       1  UNL11       0.0626
     48 H           3.8446   -1.7882   -2.6886 H       1  UNL11       0.0631
@<TRIPOS>BOND
     1     1     2    2
     2     2     3   am
     3     2     5    1
     4     3     4    1
     5     3    29    1
     6     5     6   ar
     7     6     7   ar
     8     6    30    1
     9     7     8   ar
    10     7    31    1
    11     8     9   ar
    12     8    32    1
    13     9    10    1
    14     9    28   ar
    15    10    11   ar
    16    11    12   ar
    17    11    33    1
    18    12    13   ar
    19    12    34    1
    20    13    14   ar
    21    13    35    1
    22    14    15    1
    23    14    27   ar
    24    15    16    1
    25    15    36    1
    26    15    37    1
    27    16    17    2
    28    17    18    1
    29    18    19   am
    30    18    38    1
    31    19    20    2
    32    19    21    1
    33    21    22    2
    34    22    23    1
    35    22    16    1
    36    23    24    1
    37    23    39    1
    38    23    40    1
    39    24    25    1
    40    24    41    1
    41    24    42    1
    42    25    26    1
    43    25    43    1
    44    25    44    1
    45    26    21    1
    46    26    45    1
    47    26    46    1
    48    27    10   ar
    49    27    47    1
    50    28     5   ar
    51    28    48    1
@<TRIPOS>MOLECULE
*****
 48 51 0 0 0
SMALL
GASTEIGER

@<TRIPOS>ATOM
      1 O           5.1480    3.4921   -1.4709 O.2     1  UNL11      -0.2679
      2 C           4.1842    2.7295   -1.2767 C.2     1  UNL11       0.2706
      3 N           2.8774    3.2693   -1.1531 N.am    1  UNL11      -0.1481
      4 F           2.6834    4.6089   -1.2462 F       1  UNL11      -0.1090
      5 C           4.3940    1.2944   -1.1756 C.ar    1  UNL11       0.0395
      6 C           5.5992    0.6615   -1.2764 C.ar    1  UNL11      -0.0495
      7 C           5.6678   -0.7303   -1.1706 C.ar    1  UNL11      -0.0605
      8 C           4.5485   -1.4925   -0.9660 C.ar    1  UNL11      -0.0540
      9 C           3.3254   -0.8772   -0.8617 C.ar    1  UNL11      -0.0172
     10 C           2.1192   -1.6859   -0.6550 C.ar    1  UNL11      -0.0176
     11 C           1.9911   -2.9747   -1.1215 C.ar    1  UNL11      -0.0540
     12 C           0.8134   -3.6866   -0.9033 C.ar    1  UNL11      -0.0609
     13 C          -0.2436   -3.1264   -0.2219 C.ar    1  UNL11      -0.0582
     14 C          -0.1224   -1.8466    0.2446 C.ar    1  UNL11      -0.0408
     15 C          -1.2134   -1.1314    0.9887 C.3     1  UNL11       0.0208
     16 C          -0.8175    0.2315    1.3547 C.2     1  UNL11       0.1150
     17 N          -1.5028    1.3056    0.9197 N.2     1  UNL11      -0.0076
     18 N          -1.1534    2.5457    1.2246 N.am    1  UNL11      -0.0358
     19 C          -0.0786    2.8189    1.9984 C.2     1  UNL11       0.4340
     20 O           0.2720    4.0015    2.3015 O.2     1  UNL11      -0.2120
     21 C           0.6465    1.7262    2.4611 C.2     1  UNL11       0.0740
     22 C           0.2771    0.4384    2.1398 C.2     1  UNL11      -0.0072
     23 C           1.0633   -0.7143    2.6505 C.3     1  UNL11      -0.0252
     24 C           1.3684   -0.4589    4.1210 C.3     1  UNL11      -0.0487
     25 C           1.7441    0.9284    4.4487 C.3     1  UNL11      -0.0484
     26 C           1.8494    1.8871    3.3152 C.3     1  UNL11      -0.0176
     27 C           1.0423   -1.1485    0.0263 C.ar    1  UNL11      -0.0505
     28 C           3.2724    0.4916   -0.9672 C.ar    1  UNL11      -0.0418
     29 H           2.0895    2.6135   -0.9890 H       1  UNL11       0.1882
     30 H           6.4901    1.2484   -1.4363 H       1  UNL11       0.0625
     31 H           6.6341   -1.1893   -1.2558 H       1  UNL11       0.0618
     32 H           4.6354   -2.5501   -0.8903 H       1  UNL11       0.0624
     33 H           2.8254   -3.4058   -1.6539 H       1  UNL11       0.0624
     34 H           0.7419   -4.6914   -1.2793 H       1  UNL11       0.0618
     35 H          -1.1685   -3.6666   -0.0435 H       1  UNL11       0.0620
     36 H          -2.1050   -1.1753    0.3411 H       1  UNL11       0.0379
     37 H          -1.4719   -1.6732    1.9220 H       1  UNL11       0.0379
     38 H          -1.7114    3.3473    0.8649 H       1  UNL11       0.4828
     39 H           2.0041   -0.8661    2.0830 H       1  UNL11       0.0314
     40 H           0.4819   -1.6612    2.6464 H       1  UNL11       0.0314
     41 H           2.1192   -1.2228    4.4211 H       1  UNL11       0.0268
     42 H           0.4359   -0.7194    4.7013 H       1  UNL11       0.0268
     43 H           1.0446    1.3902    5.2050 H       1  UNL11       0.0269
     44 H           2.7338    0.9228    4.9938 H       1  UNL11       0.0269
     45 H           2.7394    1.7188    2.6679 H       1  UNL11       0.0316
     46 H           1.8935    2.9124    3.7368 H       1  UNL11       0.0316
     47 H           1.1371   -0.1266    0.3993 H       1  UNL11       0.0626
     48 H           2.3070    0.9665   -0.8834 H       1  UNL11       0.0631
@<TRIPOS>BOND
     1     1     2    2
     2     2     3   am
     3     2     5    1
     4     3     4    1
     5     3    29    1
     6     5     6   ar
     7     6     7   ar
     8     6    30    1
     9     7     8   ar
    10     7    31    1
    11     8     9   ar
    12     8    32    1
    13     9    10    1
    14     9    28   ar
    15    10    11   ar
    16    11    12   ar
    17    11    33    1
    18    12    13   ar
    19    12    34    1
    20    13    14   ar
    21    13    35    1
    22    14    15    1
    23    14    27   ar
    24    15    16    1
    25    15    36    1
    26    15    37    1
    27    16    17    2
    28    17    18    1
    29    18    19   am
    30    18    38    1
    31    19    20    2
    32    19    21    1
    33    21    22    2
    34    22    23    1
    35    22    16    1
    36    23    24    1
    37    23    39    1
    38    23    40    1
    39    24    25    1
    40    24    41    1
    41    24    42    1
    42    25    26    1
    43    25    43    1
    44    25    44    1
    45    26    21    1
    46    26    45    1
    47    26    46    1
    48    27    10   ar
    49    27    47    1
    50    28     5   ar
    51    28    48    1
@<TRIPOS>MOLECULE
*****
 48 51 0 0 0
SMALL
GASTEIGER

@<TRIPOS>ATOM
      1 O           5.1480    3.4921   -1.4709 O.2     1  UNL11      -0.2679
      2 C           4.1842    2.7295   -1.2767 C.2     1  UNL11       0.2706
      3 N           2.8774    3.2693   -1.1531 N.am    1  UNL11      -0.1481
      4 F           2.6834    4.6089   -1.2462 F       1  UNL11      -0.1090
      5 C           4.3940    1.2944   -1.1756 C.ar    1  UNL11       0.0395
      6 C           5.5992    0.6615   -1.2764 C.ar    1  UNL11      -0.0495
      7 C           5.6678   -0.7303   -1.1706 C.ar    1  UNL11      -0.0605
      8 C           4.5485   -1.4925   -0.9660 C.ar    1  UNL11      -0.0540
      9 C           3.3254   -0.8772   -0.8617 C.ar    1  UNL11      -0.0172
     10 C           2.1192   -1.6859   -0.6550 C.ar    1  UNL11      -0.0176
     11 C           1.9911   -2.9747   -1.1215 C.ar    1  UNL11      -0.0540
     12 C           0.8134   -3.6866   -0.9033 C.ar    1  UNL11      -0.0609
     13 C          -0.2436   -3.1264   -0.2219 C.ar    1  UNL11      -0.0582
     14 C          -0.1224   -1.8466    0.2446 C.ar    1  UNL11      -0.0408
     15 C          -1.2134   -1.1314    0.9887 C.3     1  UNL11       0.0208
     16 C          -1.5690   -1.8253    2.2297 C.2     1  UNL11       0.1150
     17 N          -1.4510   -1.2276    3.4304 N.2     1  UNL11      -0.0076
     18 N          -1.7509   -1.8408    4.5647 N.am    1  UNL11      -0.0358
     19 C          -2.1989   -3.1164    4.5944 C.2     1  UNL11       0.4340
     20 O          -2.4916   -3.7212    5.6723 O.2     1  UNL11      -0.2120
     21 C          -2.3300   -3.7565    3.3668 C.2     1  UNL11       0.0740
     22 C          -2.0160   -3.1121    2.1902 C.2     1  UNL11      -0.0072
     23 C          -2.1696   -3.8137    0.8895 C.3     1  UNL11      -0.0252
     24 C          -3.5039   -4.5484    0.9079 C.3     1  UNL11      -0.0487
     25 C          -3.8311   -5.2165    2.1807 C.3     1  UNL11      -0.0484
     26 C          -2.8071   -5.1576    3.2590 C.3     1  UNL11      -0.0176
     27 C           1.0423   -1.1485    0.0263 C.ar    1  UNL11      -0.0505
     28 C           3.2724    0.4916   -0.9672 C.ar    1  UNL11      -0.0418
     29 H           2.0895    2.6135   -0.9890 H       1  UNL11       0.1882
     30 H           6.4901    1.2484   -1.4363 H       1  UNL11       0.0625
     31 H           6.6341   -1.1893   -1.2558 H       1  UNL11       0.0618
     32 H           4.6354   -2.5501   -0.8903 H       1  UNL11       0.0624
     33 H           2.8254   -3.4058   -1.6539 H       1  UNL11       0.0624
     34 H           0.7419   -4.6914   -1.2793 H       1  UNL11       0.0618
     35 H          -1.1685   -3.6666   -0.0435 H       1  UNL11       0.0620
     36 H          -0.8527   -0.1009    1.1445 H       1  UNL11       0.0379
     37 H          -2.1288   -1.0566    0.3660 H       1  UNL11       0.0379
     38 H          -1.6430   -1.3410    5.4713 H       1  UNL11       0.4828
     39 H          -1.3412   -4.5252    0.6951 H       1  UNL11       0.0314
     40 H          -2.2501   -3.1101    0.0333 H       1  UNL11       0.0314
     41 H          -3.5022   -5.2208    0.0217 H       1  UNL11       0.0268
     42 H          -4.3050   -3.7825    0.6942 H       1  UNL11       0.0268
     43 H          -4.7968   -4.8353    2.6241 H       1  UNL11       0.0269
     44 H          -4.0611   -6.3039    1.9771 H       1  UNL11       0.0269
     45 H          -1.9159   -5.7964    3.0654 H       1  UNL11       0.0316
     46 H          -3.2878   -5.4793    4.2058 H       1  UNL11       0.0316
     47 H           1.1371   -0.1266    0.3993 H       1  UNL11       0.0626
     48 H           2.3070    0.9665   -0.8834 H       1  UNL11       0.0631
@<TRIPOS>BOND
     1     1     2    2
     2     2     3   am
     3     2     5    1
     4     3     4    1
     5     3    29    1
     6     5     6   ar
     7     6     7   ar
     8     6    30    1
     9     7     8   ar
    10     7    31    1
    11     8     9   ar
    12     8    32    1
    13     9    10    1
    14     9    28   ar
    15    10    11   ar
    16    11    12   ar
    17    11    33    1
    18    12    13   ar
    19    12    34    1
    20    13    14   ar
    21    13    35    1
    22    14    15    1
    23    14    27   ar
    24    15    16    1
    25    15    36    1
    26    15    37    1
    27    16    17    2
    28    17    18    1
    29    18    19   am
    30    18    38    1
    31    19    20    2
    32    19    21    1
    33    21    22    2
    34    22    23    1
    35    22    16    1
    36    23    24    1
    37    23    39    1
    38    23    40    1
    39    24    25    1
    40    24    41    1
    41    24    42    1
    42    25    26    1
    43    25    43    1
    44    25    44    1
    45    26    21    1
    46    26    45    1
    47    26    46    1
    48    27    10   ar
    49    27    47    1
    50    28     5   ar
    51    28    48    1
@<TRIPOS>MOLECULE
*****
 48 51 0 0 0
SMALL
GASTEIGER

@<TRIPOS>ATOM
      1 O           6.2823    2.2470    1.1163 O.2     1  UNL11      -0.2679
      2 C           5.1120    1.8966    0.8795 C.2     1  UNL11       0.2706
      3 N           4.0446    2.4791    1.6113 N.am    1  UNL11      -0.1481
      4 F           2.7658    2.0945    1.3710 F       1  UNL11      -0.1090
      5 C           4.8386    0.8961   -0.1394 C.ar    1  UNL11       0.0395
      6 C           5.5936    0.6753   -1.2548 C.ar    1  UNL11      -0.0495
      7 C           5.2181   -0.3143   -2.1673 C.ar    1  UNL11      -0.0605
      8 C           4.1001   -1.0820   -1.9767 C.ar    1  UNL11      -0.0540
      9 C           3.3254   -0.8772   -0.8617 C.ar    1  UNL11      -0.0172
     10 C           2.1192   -1.6859   -0.6550 C.ar    1  UNL11      -0.0176
     11 C           1.9911   -2.9747   -1.1215 C.ar    1  UNL11      -0.0540
     12 C           0.8134   -3.6866   -0.9033 C.ar    1  UNL11      -0.0609
     13 C          -0.2436   -3.1264   -0.2219 C.ar    1  UNL11      -0.0582
     14 C          -0.1224   -1.8466    0.2446 C.ar    1  UNL11      -0.0408
     15 C          -1.2134   -1.1314    0.9887 C.3     1  UNL11       0.0208
     16 C          -2.5427   -1.5924    0.5782 C.2     1  UNL11       0.1150
     17 N          -3.4474   -0.7502    0.0444 N.2     1  UNL11      -0.0076
     18 N          -4.6590   -1.1415   -0.3181 N.am    1  UNL11      -0.0358
     19 C          -5.0723   -2.4213   -0.1764 C.2     1  UNL11       0.4340
     20 O          -6.2303   -2.8154   -0.5183 O.2     1  UNL11      -0.2120
     21 C          -4.1561   -3.3118    0.3725 C.2     1  UNL11       0.0740
     22 C          -2.8968   -2.8974    0.7477 C.2     1  UNL11      -0.0072
     23 C          -1.9320   -3.8679    1.3266 C.3     1  UNL11      -0.0252
     24 C          -1.9904   -5.1412    0.4925 C.3     1  UNL11      -0.0487
     25 C          -3.3443   -5.5591    0.0853 C.3     1  UNL11      -0.0484
     26 C          -4.4839   -4.7434    0.5860 C.3     1  UNL11      -0.0176
     27 C           1.0423   -1.1485    0.0263 C.ar    1  UNL11      -0.0505
     28 C           3.7063    0.0986    0.0273 C.ar    1  UNL11      -0.0418
     29 H           4.2736    3.1996    2.3227 H       1  UNL11       0.1882
     30 H           6.4779    1.2711   -1.4182 H       1  UNL11       0.0625
     31 H           5.8383   -0.4562   -3.0316 H       1  UNL11       0.0618
     32 H           3.8421   -1.8270   -2.6910 H       1  UNL11       0.0624
     33 H           2.8254   -3.4058   -1.6539 H       1  UNL11       0.0624
     34 H           0.7419   -4.6914   -1.2793 H       1  UNL11       0.0618
     35 H          -1.1685   -3.6666   -0.0435 H       1  UNL11       0.0620
     36 H          -1.0029   -1.2831    2.0606 H       1  UNL11       0.0379
     37 H          -1.1608   -0.0381    0.8064 H       1  UNL11       0.0379
     38 H          -5.3277   -0.4558   -0.7254 H       1  UNL11       0.4828
     39 H          -2.1503   -4.0942    2.3902 H       1  UNL11       0.0314
     40 H          -0.8788   -3.5248    1.2388 H       1  UNL11       0.0314
     41 H          -1.4213   -5.9114    1.0585 H       1  UNL11       0.0268
     42 H          -1.3829   -4.9529   -0.4399 H       1  UNL11       0.0268
     43 H          -3.4508   -5.6174   -1.0371 H       1  UNL11       0.0269
     44 H          -3.5123   -6.6286    0.4086 H       1  UNL11       0.0269
     45 H          -4.6871   -4.8776    1.6724 H       1  UNL11       0.0316
     46 H          -5.3877   -5.0264    0.0081 H       1  UNL11       0.0316
     47 H           1.1371   -0.1266    0.3993 H       1  UNL11       0.0626
     48 H           3.0917    0.2521    0.9010 H       1  UNL11       0.0631
@<TRIPOS>BOND
     1     1     2    2
     2     2     3   am
     3     2     5    1
     4     3     4    1
     5     3    29    1
     6     5     6   ar
     7     6     7   ar
     8     6    30    1
     9     7     8   ar
    10     7    31    1
    11     8     9   ar
    12     8    32    1
    13     9    10    1
    14     9    28   ar
    15    10    11   ar
    16    11    12   ar
    17    11    33    1
    18    12    13   ar
    19    12    34    1
    20    13    14   ar
    21    13    35    1
    22    14    15    1
    23    14    27   ar
    24    15    16    1
    25    15    36    1
    26    15    37    1
    27    16    17    2
    28    17    18    1
    29    18    19   am
    30    18    38    1
    31    19    20    2
    32    19    21    1
    33    21    22    2
    34    22    23    1
    35    22    16    1
    36    23    24    1
    37    23    39    1
    38    23    40    1
    39    24    25    1
    40    24    41    1
    41    24    42    1
    42    25    26    1
    43    25    43    1
    44    25    44    1
    45    26    21    1
    46    26    45    1
    47    26    46    1
    48    27    10   ar
    49    27    47    1
    50    28     5   ar
    51    28    48    1
@<TRIPOS>MOLECULE
*****
 48 51 0 0 0
SMALL
GASTEIGER

@<TRIPOS>ATOM
      1 O           5.1480    3.4921   -1.4709 O.2     1  UNL11      -0.2679
      2 C           4.1842    2.7295   -1.2767 C.2     1  UNL11       0.2706
      3 N           2.8774    3.2693   -1.1531 N.am    1  UNL11      -0.1481
      4 F           2.6834    4.6089   -1.2462 F       1  UNL11      -0.1090
      5 C           4.3940    1.2944   -1.1756 C.ar    1  UNL11       0.0395
      6 C           5.5992    0.6615   -1.2764 C.ar    1  UNL11      -0.0495
      7 C           5.6678   -0.7303   -1.1706 C.ar    1  UNL11      -0.0605
      8 C           4.5485   -1.4925   -0.9660 C.ar    1  UNL11      -0.0540
      9 C           3.3254   -0.8772   -0.8617 C.ar    1  UNL11      -0.0172
     10 C           2.1192   -1.6859   -0.6550 C.ar    1  UNL11      -0.0176
     11 C           1.9911   -2.9747   -1.1215 C.ar    1  UNL11      -0.0540
     12 C           0.8134   -3.6866   -0.9033 C.ar    1  UNL11      -0.0609
     13 C          -0.2436   -3.1264   -0.2219 C.ar    1  UNL11      -0.0582
     14 C          -0.1224   -1.8466    0.2446 C.ar    1  UNL11      -0.0408
     15 C          -1.2134   -1.1314    0.9887 C.3     1  UNL11       0.0208
     16 C          -2.4366   -1.0249    0.1884 C.2     1  UNL11       0.1150
     17 N          -2.6627    0.0301   -0.6170 N.2     1  UNL11      -0.0076
     18 N          -3.7673    0.1545   -1.3359 N.am    1  UNL11      -0.0358
     19 C          -4.7490   -0.7753   -1.3103 C.2     1  UNL11       0.4340
     20 O          -5.8153   -0.6734   -1.9927 O.2     1  UNL11      -0.2120
     21 C          -4.5397   -1.8756   -0.4862 C.2     1  UNL11       0.0740
     22 C          -3.3876   -1.9985    0.2594 C.2     1  UNL11      -0.0072
     23 C          -3.1826   -3.1860    1.1285 C.3     1  UNL11      -0.0252
     24 C          -3.5974   -4.4214    0.3398 C.3     1  UNL11      -0.0487
     25 C          -4.8221   -4.2655   -0.4660 C.3     1  UNL11      -0.0484
     26 C          -5.5393   -2.9656   -0.3630 C.3     1  UNL11      -0.0176
     27 C           1.0423   -1.1485    0.0263 C.ar    1  UNL11      -0.0505
     28 C           3.2724    0.4916   -0.9672 C.ar    1  UNL11      -0.0418
     29 H           2.0895    2.6135   -0.9890 H       1  UNL11       0.1882
     30 H           6.4901    1.2484   -1.4363 H       1  UNL11       0.0625
     31 H           6.6341   -1.1893   -1.2558 H       1  UNL11       0.0618
     32 H           4.6354   -2.5501   -0.8903 H       1  UNL11       0.0624
     33 H           2.8254   -3.4058   -1.6539 H       1  UNL11       0.0624
     34 H           0.7419   -4.6914   -1.2793 H       1  UNL11       0.0618
     35 H          -1.1685   -3.6666   -0.0435 H       1  UNL11       0.0620
     36 H          -1.3492   -1.6809    1.9353 H       1  UNL11       0.0379
     37 H          -0.8941   -0.1041    1.2610 H       1  UNL11       0.0379
     38 H          -3.9016    0.9883   -1.9444 H       1  UNL11       0.4828
     39 H          -3.7605   -3.1206    2.0730 H       1  UNL11       0.0314
     40 H          -2.1117   -3.3562    1.3711 H       1  UNL11       0.0314
     41 H          -3.6293   -5.2610    1.0688 H       1  UNL11       0.0268
     42 H          -2.7447   -4.6694   -0.3570 H       1  UNL11       0.0268
     43 H          -4.6343   -4.4505   -1.5637 H       1  UNL11       0.0269
     44 H          -5.5485   -5.0872   -0.1943 H       1  UNL11       0.0269
     45 H          -6.0678   -2.8215    0.6063 H       1  UNL11       0.0316
     46 H          -6.2757   -2.9141   -1.1912 H       1  UNL11       0.0316
     47 H           1.1371   -0.1266    0.3993 H       1  UNL11       0.0626
     48 H           2.3070    0.9665   -0.8834 H       1  UNL11       0.0631
@<TRIPOS>BOND
     1     1     2    2
     2     2     3   am
     3     2     5    1
     4     3     4    1
     5     3    29    1
     6     5     6   ar
     7     6     7   ar
     8     6    30    1
     9     7     8   ar
    10     7    31    1
    11     8     9   ar
    12     8    32    1
    13     9    10    1
    14     9    28   ar
    15    10    11   ar
    16    11    12   ar
    17    11    33    1
    18    12    13   ar
    19    12    34    1
    20    13    14   ar
    21    13    35    1
    22    14    15    1
    23    14    27   ar
    24    15    16    1
    25    15    36    1
    26    15    37    1
    27    16    17    2
    28    17    18    1
    29    18    19   am
    30    18    38    1
    31    19    20    2
    32    19    21    1
    33    21    22    2
    34    22    23    1
    35    22    16    1
    36    23    24    1
    37    23    39    1
    38    23    40    1
    39    24    25    1
    40    24    41    1
    41    24    42    1
    42    25    26    1
    43    25    43    1
    44    25    44    1
    45    26    21    1
    46    26    45    1
    47    26    46    1
    48    27    10   ar
    49    27    47    1
    50    28     5   ar
    51    28    48    1
@<TRIPOS>MOLECULE
*****
 48 51 0 0 0
SMALL
GASTEIGER

@<TRIPOS>ATOM
      1 O           7.0976    0.0292   -3.6426 O.2     1  UNL11      -0.2679
      2 C           6.0498   -0.5945   -3.3946 C.2     1  UNL11       0.2706
      3 N           5.5985   -1.5928   -4.2968 N.am    1  UNL11      -0.1481
      4 F           6.3068   -1.8629   -5.4221 F       1  UNL11      -0.1090
      5 C           5.2911   -0.3027   -2.1891 C.ar    1  UNL11       0.0395
      6 C           5.6234    0.6317   -1.2514 C.ar    1  UNL11      -0.0495
      7 C           4.8132    0.8111   -0.1270 C.ar    1  UNL11      -0.0605
      8 C           3.6790    0.0688    0.0686 C.ar    1  UNL11      -0.0540
      9 C           3.3254   -0.8772   -0.8617 C.ar    1  UNL11      -0.0172
     10 C           2.1192   -1.6859   -0.6550 C.ar    1  UNL11      -0.0176
     11 C           1.9911   -2.9747   -1.1215 C.ar    1  UNL11      -0.0540
     12 C           0.8134   -3.6866   -0.9033 C.ar    1  UNL11      -0.0609
     13 C          -0.2436   -3.1264   -0.2219 C.ar    1  UNL11      -0.0582
     14 C          -0.1224   -1.8466    0.2446 C.ar    1  UNL11      -0.0408
     15 C          -1.2134   -1.1314    0.9887 C.3     1  UNL11       0.0208
     16 C          -1.5690   -1.8253    2.2297 C.2     1  UNL11       0.1150
     17 N          -0.6673   -2.5560    2.9122 N.2     1  UNL11      -0.0076
     18 N          -0.9708   -3.2040    4.0260 N.am    1  UNL11      -0.0358
     19 C          -2.2141   -3.1754    4.5570 C.2     1  UNL11       0.4340
     20 O          -2.5241   -3.7903    5.6243 O.2     1  UNL11      -0.2120
     21 C          -3.1645   -2.4270    3.8711 C.2     1  UNL11       0.0740
     22 C          -2.8415   -1.7552    2.7124 C.2     1  UNL11      -0.0072
     23 C          -3.8718   -0.9566    1.9993 C.3     1  UNL11      -0.0252
     24 C          -4.6447   -0.1540    3.0380 C.3     1  UNL11      -0.0487
     25 C          -4.9655   -0.8835    4.2783 C.3     1  UNL11      -0.0484
     26 C          -4.5668   -2.3159    4.3437 C.3     1  UNL11      -0.0176
     27 C           1.0423   -1.1485    0.0263 C.ar    1  UNL11      -0.0505
     28 C           4.1306   -1.0429   -1.9625 C.ar    1  UNL11      -0.0418
     29 H           4.7205   -2.0981   -4.0697 H       1  UNL11       0.1882
     30 H           6.5132    1.2252   -1.3920 H       1  UNL11       0.0625
     31 H           5.1095    1.5556    0.5869 H       1  UNL11       0.0618
     32 H           3.0843    0.2302    0.9358 H       1  UNL11       0.0624
     33 H           2.8254   -3.4058   -1.6539 H       1  UNL11       0.0624
     34 H           0.7419   -4.6914   -1.2793 H       1  UNL11       0.0618
     35 H          -1.1685   -3.6666   -0.0435 H       1  UNL11       0.0620
     36 H          -0.8527   -0.1009    1.1445 H       1  UNL11       0.0379
     37 H          -2.1288   -1.0566    0.3660 H       1  UNL11       0.0379
     38 H          -0.2423   -3.7588    4.5208 H       1  UNL11       0.4828
     39 H          -4.5643   -1.5928    1.4112 H       1  UNL11       0.0314
     40 H          -3.4274   -0.1903    1.3285 H       1  UNL11       0.0314
     41 H          -5.5280    0.2696    2.5111 H       1  UNL11       0.0268
     42 H          -4.0072    0.7377    3.3070 H       1  UNL11       0.0268
     43 H          -4.5316   -0.3803    5.1910 H       1  UNL11       0.0269
     44 H          -6.0784   -0.8224    4.4640 H       1  UNL11       0.0269
     45 H          -5.1859   -2.9826    3.7018 H       1  UNL11       0.0316
     46 H          -4.6494   -2.6466    5.3995 H       1  UNL11       0.0316
     47 H           1.1371   -0.1266    0.3993 H       1  UNL11       0.0626
     48 H           3.8446   -1.7882   -2.6886 H       1  UNL11       0.0631
@<TRIPOS>BOND
     1     1     2    2
     2     2     3   am
     3     2     5    1
     4     3     4    1
     5     3    29    1
     6     5     6   ar
     7     6     7   ar
     8     6    30    1
     9     7     8   ar
    10     7    31    1
    11     8     9   ar
    12     8    32    1
    13     9    10    1
    14     9    28   ar
    15    10    11   ar
    16    11    12   ar
    17    11    33    1
    18    12    13   ar
    19    12    34    1
    20    13    14   ar
    21    13    35    1
    22    14    15    1
    23    14    27   ar
    24    15    16    1
    25    15    36    1
    26    15    37    1
    27    16    17    2
    28    17    18    1
    29    18    19   am
    30    18    38    1
    31    19    20    2
    32    19    21    1
    33    21    22    2
    34    22    23    1
    35    22    16    1
    36    23    24    1
    37    23    39    1
    38    23    40    1
    39    24    25    1
    40    24    41    1
    41    24    42    1
    42    25    26    1
    43    25    43    1
    44    25    44    1
    45    26    21    1
    46    26    45    1
    47    26    46    1
    48    27    10   ar
    49    27    47    1
    50    28     5   ar
    51    28    48    1
@<TRIPOS>MOLECULE
*****
 48 51 0 0 0
SMALL
GASTEIGER

@<TRIPOS>ATOM
      1 O           6.5163   -2.4290   -2.9237 O.2     1  UNL11      -0.2679
      2 C           6.6606   -1.2732   -2.4858 C.2     1  UNL11       0.2706
      3 N           7.8839   -0.5882   -2.7058 N.am    1  UNL11      -0.1481
      4 F           8.0572    0.6671   -2.2209 F       1  UNL11      -0.1090
      5 C           5.5840   -0.6279   -1.7521 C.ar    1  UNL11       0.0395
      6 C           5.6226    0.6362   -1.2387 C.ar    1  UNL11      -0.0495
      7 C           4.5212    1.1407   -0.5420 C.ar    1  UNL11      -0.0605
      8 C           3.3864    0.3972   -0.3542 C.ar    1  UNL11      -0.0540
      9 C           3.3254   -0.8772   -0.8617 C.ar    1  UNL11      -0.0172
     10 C           2.1192   -1.6859   -0.6550 C.ar    1  UNL11      -0.0176
     11 C           1.9911   -2.9747   -1.1215 C.ar    1  UNL11      -0.0540
     12 C           0.8134   -3.6866   -0.9033 C.ar    1  UNL11      -0.0609
     13 C          -0.2436   -3.1264   -0.2219 C.ar    1  UNL11      -0.0582
     14 C          -0.1224   -1.8466    0.2446 C.ar    1  UNL11      -0.0408
     15 C          -1.2134   -1.1314    0.9887 C.3     1  UNL11       0.0208
     16 C          -2.5427   -1.5924    0.5782 C.2     1  UNL11       0.1150
     17 N          -3.1574   -2.6158    1.2008 N.2     1  UNL11      -0.0076
     18 N          -4.3505   -3.0590    0.8363 N.am    1  UNL11      -0.0358
     19 C          -5.0367   -2.5104   -0.1917 C.2     1  UNL11       0.4340
     20 O          -6.1819   -2.9217   -0.5559 O.2     1  UNL11      -0.2120
     21 C          -4.4235   -1.4509   -0.8516 C.2     1  UNL11       0.0740
     22 C          -3.1816   -0.9950   -0.4668 C.2     1  UNL11      -0.0072
     23 C          -2.5481    0.1426   -1.1826 C.3     1  UNL11      -0.0252
     24 C          -3.6110    1.2127   -1.3957 C.3     1  UNL11      -0.0487
     25 C          -4.9379    0.7049   -1.7893 C.3     1  UNL11      -0.0484
     26 C          -5.0663   -0.7629   -1.9986 C.3     1  UNL11      -0.0176
     27 C           1.0423   -1.1485    0.0263 C.ar    1  UNL11      -0.0505
     28 C           4.4151   -1.3604   -1.5448 C.ar    1  UNL11      -0.0418
     29 H           8.6273   -1.0730   -3.2445 H       1  UNL11       0.1882
     30 H           6.5090    1.2347   -1.3795 H       1  UNL11       0.0625
     31 H           4.5917    2.1387   -0.1538 H       1  UNL11       0.0618
     32 H           2.5656    0.8110    0.1813 H       1  UNL11       0.0624
     33 H           2.8254   -3.4058   -1.6539 H       1  UNL11       0.0624
     34 H           0.7419   -4.6914   -1.2793 H       1  UNL11       0.0618
     35 H          -1.1685   -3.6666   -0.0435 H       1  UNL11       0.0620
     36 H          -1.0029   -1.2831    2.0606 H       1  UNL11       0.0379
     37 H          -1.1608   -0.0381    0.8064 H       1  UNL11       0.0379
     38 H          -4.7883   -3.8546    1.3450 H       1  UNL11       0.4828
     39 H          -2.1101   -0.1637   -2.1545 H       1  UNL11       0.0314
     40 H          -1.7646    0.6444   -0.5752 H       1  UNL11       0.0314
     41 H          -3.1725    1.9519   -2.1019 H       1  UNL11       0.0268
     42 H          -3.7202    1.7681   -0.4192 H       1  UNL11       0.0268
     43 H          -5.7415    1.0030   -1.0545 H       1  UNL11       0.0269
     44 H          -5.2631    1.2225   -2.7396 H       1  UNL11       0.0269
     45 H          -4.5679   -1.1283   -2.9248 H       1  UNL11       0.0316
     46 H          -6.1471   -1.0091   -2.0446 H       1  UNL11       0.0316
     47 H           1.1371   -0.1266    0.3993 H       1  UNL11       0.0626
     48 H           4.3579   -2.3627   -1.9406 H       1  UNL11       0.0631
@<TRIPOS>BOND
     1     1     2    2
     2     2     3   am
     3     2     5    1
     4     3     4    1
     5     3    29    1
     6     5     6   ar
     7     6     7   ar
     8     6    30    1
     9     7     8   ar
    10     7    31    1
    11     8     9   ar
    12     8    32    1
    13     9    10    1
    14     9    28   ar
    15    10    11   ar
    16    11    12   ar
    17    11    33    1
    18    12    13   ar
    19    12    34    1
    20    13    14   ar
    21    13    35    1
    22    14    15    1
    23    14    27   ar
    24    15    16    1
    25    15    36    1
    26    15    37    1
    27    16    17    2
    28    17    18    1
    29    18    19   am
    30    18    38    1
    31    19    20    2
    32    19    21    1
    33    21    22    2
    34    22    23    1
    35    22    16    1
    36    23    24    1
    37    23    39    1
    38    23    40    1
    39    24    25    1
    40    24    41    1
    41    24    42    1
    42    25    26    1
    43    25    43    1
    44    25    44    1
    45    26    21    1
    46    26    45    1
    47    26    46    1
    48    27    10   ar
    49    27    47    1
    50    28     5   ar
    51    28    48    1
@<TRIPOS>MOLECULE
*****
 48 51 0 0 0
SMALL
GASTEIGER

@<TRIPOS>ATOM
      1 O           6.5163   -2.4290   -2.9237 O.2     1  UNL11      -0.2679
      2 C           6.6606   -1.2732   -2.4858 C.2     1  UNL11       0.2706
      3 N           7.8839   -0.5882   -2.7058 N.am    1  UNL11      -0.1481
      4 F           8.0572    0.6671   -2.2209 F       1  UNL11      -0.1090
      5 C           5.5840   -0.6279   -1.7521 C.ar    1  UNL11       0.0395
      6 C           5.6226    0.6362   -1.2387 C.ar    1  UNL11      -0.0495
      7 C           4.5212    1.1407   -0.5420 C.ar    1  UNL11      -0.0605
      8 C           3.3864    0.3972   -0.3542 C.ar    1  UNL11      -0.0540
      9 C           3.3254   -0.8772   -0.8617 C.ar    1  UNL11      -0.0172
     10 C           2.1192   -1.6859   -0.6550 C.ar    1  UNL11      -0.0176
     11 C           1.9911   -2.9747   -1.1215 C.ar    1  UNL11      -0.0540
     12 C           0.8134   -3.6866   -0.9033 C.ar    1  UNL11      -0.0609
     13 C          -0.2436   -3.1264   -0.2219 C.ar    1  UNL11      -0.0582
     14 C          -0.1224   -1.8466    0.2446 C.ar    1  UNL11      -0.0408
     15 C          -1.2134   -1.1314    0.9887 C.3     1  UNL11       0.0208
     16 C          -1.5690   -1.8253    2.2297 C.2     1  UNL11       0.1150
     17 N          -2.8163   -1.7737    2.7339 N.2     1  UNL11      -0.0076
     18 N          -3.1553   -2.3791    3.8614 N.am    1  UNL11      -0.0358
     19 C          -2.2666   -3.0949    4.5870 C.2     1  UNL11       0.4340
     20 O          -2.5730   -3.6825    5.6706 O.2     1  UNL11      -0.2120
     21 C          -0.9707   -3.1641    4.0875 C.2     1  UNL11       0.0740
     22 C          -0.6250   -2.5314    2.9134 C.2     1  UNL11      -0.0072
     23 C           0.7646   -2.6240    2.3954 C.3     1  UNL11      -0.0252
     24 C           1.2184   -4.0721    2.5272 C.3     1  UNL11      -0.0487
     25 C           0.8239   -4.7382    3.7819 C.3     1  UNL11      -0.0484
     26 C           0.1018   -3.9132    4.7882 C.3     1  UNL11      -0.0176
     27 C           1.0423   -1.1485    0.0263 C.ar    1  UNL11      -0.0505
     28 C           4.4151   -1.3604   -1.5448 C.ar    1  UNL11      -0.0418
     29 H           8.6273   -1.0730   -3.2445 H       1  UNL11       0.1882
     30 H           6.5090    1.2347   -1.3795 H       1  UNL11       0.0625
     31 H           4.5917    2.1387   -0.1538 H       1  UNL11       0.0618
     32 H           2.5656    0.8110    0.1813 H       1  UNL11       0.0624
     33 H           2.8254   -3.4058   -1.6539 H       1  UNL11       0.0624
     34 H           0.7419   -4.6914   -1.2793 H       1  UNL11       0.0618
     35 H          -1.1685   -3.6666   -0.0435 H       1  UNL11       0.0620
     36 H          -0.8527   -0.1009    1.1445 H       1  UNL11       0.0379
     37 H          -2.1288   -1.0566    0.3660 H       1  UNL11       0.0379
     38 H          -4.1316   -2.3114    4.2157 H       1  UNL11       0.4828
     39 H           1.4609   -1.9517    2.9369 H       1  UNL11       0.0314
     40 H           0.8281   -2.4095    1.3070 H       1  UNL11       0.0314
     41 H           2.3128   -4.0755    2.3282 H       1  UNL11       0.0268
     42 H           0.7613   -4.6407    1.6660 H       1  UNL11       0.0268
     43 H           0.1923   -5.6551    3.5952 H       1  UNL11       0.0269
     44 H           1.7452   -5.1653    4.2773 H       1  UNL11       0.0269
     45 H           0.7478   -3.1646    5.3001 H       1  UNL11       0.0316
     46 H          -0.3324   -4.5985    5.5450 H       1  UNL11       0.0316
     47 H           1.1371   -0.1266    0.3993 H       1  UNL11       0.0626
     48 H           4.3579   -2.3627   -1.9406 H       1  UNL11       0.0631
@<TRIPOS>BOND
     1     1     2    2
     2     2     3   am
     3     2     5    1
     4     3     4    1
     5     3    29    1
     6     5     6   ar
     7     6     7   ar
     8     6    30    1
     9     7     8   ar
    10     7    31    1
    11     8     9   ar
    12     8    32    1
    13     9    10    1
    14     9    28   ar
    15    10    11   ar
    16    11    12   ar
    17    11    33    1
    18    12    13   ar
    19    12    34    1
    20    13    14   ar
    21    13    35    1
    22    14    15    1
    23    14    27   ar
    24    15    16    1
    25    15    36    1
    26    15    37    1
    27    16    17    2
    28    17    18    1
    29    18    19   am
    30    18    38    1
    31    19    20    2
    32    19    21    1
    33    21    22    2
    34    22    23    1
    35    22    16    1
    36    23    24    1
    37    23    39    1
    38    23    40    1
    39    24    25    1
    40    24    41    1
    41    24    42    1
    42    25    26    1
    43    25    43    1
    44    25    44    1
    45    26    21    1
    46    26    45    1
    47    26    46    1
    48    27    10   ar
    49    27    47    1
    50    28     5   ar
    51    28    48    1
@<TRIPOS>MOLECULE
*****
 48 51 0 0 0
SMALL
GASTEIGER

@<TRIPOS>ATOM
      1 O           8.0739   -0.8400   -1.3461 O.2     1  UNL11      -0.2679
      2 C           6.9977   -1.4454   -1.1919 C.2     1  UNL11       0.2706
      3 N           6.9998   -2.8600   -1.0772 N.am    1  UNL11      -0.1481
      4 F           8.1693   -3.5453   -1.1362 F       1  UNL11      -0.1090
      5 C           5.7453   -0.7096   -1.1306 C.ar    1  UNL11       0.0395
      6 C           5.6177    0.6458   -1.2294 C.ar    1  UNL11      -0.0495
      7 C           4.3538    1.2361   -1.1452 C.ar    1  UNL11      -0.0605
      8 C           3.2210    0.4881   -0.9640 C.ar    1  UNL11      -0.0540
      9 C           3.3254   -0.8772   -0.8617 C.ar    1  UNL11      -0.0172
     10 C           2.1192   -1.6859   -0.6550 C.ar    1  UNL11      -0.0176
     11 C           1.9911   -2.9747   -1.1215 C.ar    1  UNL11      -0.0540
     12 C           0.8134   -3.6866   -0.9033 C.ar    1  UNL11      -0.0609
     13 C          -0.2436   -3.1264   -0.2219 C.ar    1  UNL11      -0.0582
     14 C          -0.1224   -1.8466    0.2446 C.ar    1  UNL11      -0.0408
     15 C          -1.2134   -1.1314    0.9887 C.3     1  UNL11       0.0208
     16 C          -0.7842   -0.7356    2.3330 C.2     1  UNL11       0.1150
     17 N          -0.2099    0.4596    2.5664 N.2     1  UNL11      -0.0076
     18 N           0.2000    0.8310    3.7692 N.am    1  UNL11      -0.0358
     19 C           0.0685    0.0305    4.8512 C.2     1  UNL11       0.4340
     20 O           0.4555    0.3693    6.0126 O.2     1  UNL11      -0.2120
     21 C          -0.5222   -1.2100    4.6369 C.2     1  UNL11       0.0740
     22 C          -0.9463   -1.5899    3.3823 C.2     1  UNL11      -0.0072
     23 C          -1.5805   -2.9180    3.1778 C.3     1  UNL11      -0.0252
     24 C          -2.5742   -3.1423    4.3103 C.3     1  UNL11      -0.0487
     25 C          -2.1101   -2.7132    5.6422 C.3     1  UNL11      -0.0484
     26 C          -0.7220   -2.1850    5.7377 C.3     1  UNL11      -0.0176
     27 C           1.0423   -1.1485    0.0263 C.ar    1  UNL11      -0.0505
     28 C           4.5739   -1.4443   -0.9466 C.ar    1  UNL11      -0.0418
     29 H           6.0895   -3.3430   -0.9517 H       1  UNL11       0.1882
     30 H           6.5008    1.2484   -1.3736 H       1  UNL11       0.0625
     31 H           4.2965    2.3046   -1.2272 H       1  UNL11       0.0618
     32 H           2.2738    0.9688   -0.9038 H       1  UNL11       0.0624
     33 H           2.8254   -3.4058   -1.6539 H       1  UNL11       0.0624
     34 H           0.7419   -4.6914   -1.2793 H       1  UNL11       0.0618
     35 H          -1.1685   -3.6666   -0.0435 H       1  UNL11       0.0620
     36 H          -1.5132   -0.2829    0.3511 H       1  UNL11       0.0379
     37 H          -2.1071   -1.7807    1.0940 H       1  UNL11       0.0379
     38 H           0.6406    1.7643    3.9042 H       1  UNL11       0.4828
     39 H          -0.8359   -3.7397    3.1508 H       1  UNL11       0.0314
     40 H          -2.1964   -2.9578    2.2539 H       1  UNL11       0.0314
     41 H          -2.8794   -4.2103    4.2508 H       1  UNL11       0.0268
     42 H          -3.5041   -2.5561    4.0540 H       1  UNL11       0.0268
     43 H          -2.7893   -1.9351    6.0980 H       1  UNL11       0.0269
     44 H          -2.2038   -3.5796    6.3615 H       1  UNL11       0.0269
     45 H           0.0629   -2.9676    5.6328 H       1  UNL11       0.0316
     46 H          -0.6118   -1.6877    6.7233 H       1  UNL11       0.0316
     47 H           1.1371   -0.1266    0.3993 H       1  UNL11       0.0626
     48 H           4.6462   -2.5180   -0.8657 H       1  UNL11       0.0631
@<TRIPOS>BOND
     1     1     2    2
     2     2     3   am
     3     2     5    1
     4     3     4    1
     5     3    29    1
     6     5     6   ar
     7     6     7   ar
     8     6    30    1
     9     7     8   ar
    10     7    31    1
    11     8     9   ar
    12     8    32    1
    13     9    10    1
    14     9    28   ar
    15    10    11   ar
    16    11    12   ar
    17    11    33    1
    18    12    13   ar
    19    12    34    1
    20    13    14   ar
    21    13    35    1
    22    14    15    1
    23    14    27   ar
    24    15    16    1
    25    15    36    1
    26    15    37    1
    27    16    17    2
    28    17    18    1
    29    18    19   am
    30    18    38    1
    31    19    20    2
    32    19    21    1
    33    21    22    2
    34    22    23    1
    35    22    16    1
    36    23    24    1
    37    23    39    1
    38    23    40    1
    39    24    25    1
    40    24    41    1
    41    24    42    1
    42    25    26    1
    43    25    43    1
    44    25    44    1
    45    26    21    1
    46    26    45    1
    47    26    46    1
    48    27    10   ar
    49    27    47    1
    50    28     5   ar
    51    28    48    1
@<TRIPOS>MOLECULE
*****
 48 51 0 0 0
SMALL
GASTEIGER

@<TRIPOS>ATOM
      1 O           7.2837   -0.4346   -3.4131 O.2     1  UNL11      -0.2679
      2 C           6.0498   -0.5945   -3.3946 C.2     1  UNL11       0.2706
      3 N           5.3865   -1.0629   -4.5585 N.am    1  UNL11      -0.1481
      4 F           4.0397   -1.2278   -4.5539 F       1  UNL11      -0.1090
      5 C           5.2911   -0.3027   -2.1891 C.ar    1  UNL11       0.0395
      6 C           5.6234    0.6317   -1.2514 C.ar    1  UNL11      -0.0495
      7 C           4.8132    0.8111   -0.1270 C.ar    1  UNL11      -0.0605
      8 C           3.6790    0.0688    0.0686 C.ar    1  UNL11      -0.0540
      9 C           3.3254   -0.8772   -0.8617 C.ar    1  UNL11      -0.0172
     10 C           2.1192   -1.6859   -0.6550 C.ar    1  UNL11      -0.0176
     11 C           1.9911   -2.9747   -1.1215 C.ar    1  UNL11      -0.0540
     12 C           0.8134   -3.6866   -0.9033 C.ar    1  UNL11      -0.0609
     13 C          -0.2436   -3.1264   -0.2219 C.ar    1  UNL11      -0.0582
     14 C          -0.1224   -1.8466    0.2446 C.ar    1  UNL11      -0.0408
     15 C          -1.2134   -1.1314    0.9887 C.3     1  UNL11       0.0208
     16 C          -2.4366   -1.0249    0.1884 C.2     1  UNL11       0.1150
     17 N          -3.6545   -1.0005    0.7618 N.2     1  UNL11      -0.0076
     18 N          -4.7727   -0.9213    0.0576 N.am    1  UNL11      -0.0358
     19 C          -4.7674   -0.8587   -1.2933 C.2     1  UNL11       0.4340
     20 O          -5.8294   -0.7824   -1.9857 O.2     1  UNL11      -0.2120
     21 C          -3.5214   -0.8820   -1.9103 C.2     1  UNL11       0.0740
     22 C          -2.3617   -0.9647   -1.1710 C.2     1  UNL11      -0.0072
     23 C          -1.0410   -0.9820   -1.8515 C.3     1  UNL11      -0.0252
     24 C          -1.0599    0.0846   -2.9390 C.3     1  UNL11      -0.0487
     25 C          -2.3152    0.1704   -3.7073 C.3     1  UNL11      -0.0484
     26 C          -3.3750   -0.8238   -3.3859 C.3     1  UNL11      -0.0176
     27 C           1.0423   -1.1485    0.0263 C.ar    1  UNL11      -0.0505
     28 C           4.1306   -1.0429   -1.9625 C.ar    1  UNL11      -0.0418
     29 H           5.9595   -1.2739   -5.3981 H       1  UNL11       0.1882
     30 H           6.5132    1.2252   -1.3920 H       1  UNL11       0.0625
     31 H           5.1095    1.5556    0.5869 H       1  UNL11       0.0618
     32 H           3.0843    0.2302    0.9358 H       1  UNL11       0.0624
     33 H           2.8254   -3.4058   -1.6539 H       1  UNL11       0.0624
     34 H           0.7419   -4.6914   -1.2793 H       1  UNL11       0.0618
     35 H          -1.1685   -3.6666   -0.0435 H       1  UNL11       0.0620
     36 H          -1.3492   -1.6809    1.9353 H       1  UNL11       0.0379
     37 H          -0.8941   -0.1041    1.2610 H       1  UNL11       0.0379
     38 H          -5.6936   -0.9069    0.5424 H       1  UNL11       0.4828
     39 H          -0.8064   -1.9737   -2.2893 H       1  UNL11       0.0314
     40 H          -0.2110   -0.6789   -1.1777 H       1  UNL11       0.0314
     41 H          -0.1514   -0.0848   -3.5581 H       1  UNL11       0.0268
     42 H          -0.8881    1.0774   -2.4302 H       1  UNL11       0.0268
     43 H          -2.7900    1.1919   -3.6320 H       1  UNL11       0.0269
     44 H          -2.0791    0.0847   -4.8090 H       1  UNL11       0.0269
     45 H          -3.1425   -1.8548   -3.7361 H       1  UNL11       0.0316
     46 H          -4.3193   -0.4826   -3.8579 H       1  UNL11       0.0316
     47 H           1.1371   -0.1266    0.3993 H       1  UNL11       0.0626
     48 H           3.8446   -1.7882   -2.6886 H       1  UNL11       0.0631
@<TRIPOS>BOND
     1     1     2    2
     2     2     3   am
     3     2     5    1
     4     3     4    1
     5     3    29    1
     6     5     6   ar
     7     6     7   ar
     8     6    30    1
     9     7     8   ar
    10     7    31    1
    11     8     9   ar
    12     8    32    1
    13     9    10    1
    14     9    28   ar
    15    10    11   ar
    16    11    12   ar
    17    11    33    1
    18    12    13   ar
    19    12    34    1
    20    13    14   ar
    21    13    35    1
    22    14    15    1
    23    14    27   ar
    24    15    16    1
    25    15    36    1
    26    15    37    1
    27    16    17    2
    28    17    18    1
    29    18    19   am
    30    18    38    1
    31    19    20    2
    32    19    21    1
    33    21    22    2
    34    22    23    1
    35    22    16    1
    36    23    24    1
    37    23    39    1
    38    23    40    1
    39    24    25    1
    40    24    41    1
    41    24    42    1
    42    25    26    1
    43    25    43    1
    44    25    44    1
    45    26    21    1
    46    26    45    1
    47    26    46    1
    48    27    10   ar
    49    27    47    1
    50    28     5   ar
    51    28    48    1
@<TRIPOS>MOLECULE
*****
 48 51 0 0 0
SMALL
GASTEIGER

@<TRIPOS>ATOM
      1 O           7.9525   -1.0040   -1.8567 O.2     1  UNL11      -0.2679
      2 C           6.9977   -1.4454   -1.1919 C.2     1  UNL11       0.2706
      3 N           7.1381   -2.6731   -0.4939 N.am    1  UNL11      -0.1481
      4 F           6.0990   -3.1706    0.2228 F       1  UNL11      -0.1090
      5 C           5.7453   -0.7096   -1.1306 C.ar    1  UNL11       0.0395
      6 C           5.6177    0.6458   -1.2294 C.ar    1  UNL11      -0.0495
      7 C           4.3538    1.2361   -1.1452 C.ar    1  UNL11      -0.0605
      8 C           3.2210    0.4881   -0.9640 C.ar    1  UNL11      -0.0540
      9 C           3.3254   -0.8772   -0.8617 C.ar    1  UNL11      -0.0172
     10 C           2.1192   -1.6859   -0.6550 C.ar    1  UNL11      -0.0176
     11 C           1.9911   -2.9747   -1.1215 C.ar    1  UNL11      -0.0540
     12 C           0.8134   -3.6866   -0.9033 C.ar    1  UNL11      -0.0609
     13 C          -0.2436   -3.1264   -0.2219 C.ar    1  UNL11      -0.0582
     14 C          -0.1224   -1.8466    0.2446 C.ar    1  UNL11      -0.0408
     15 C          -1.2134   -1.1314    0.9887 C.3     1  UNL11       0.0208
     16 C          -0.7842   -0.7356    2.3330 C.2     1  UNL11       0.1150
     17 N           0.1332   -1.4445    3.0175 N.2     1  UNL11      -0.0076
     18 N           0.5234   -1.1145    4.2388 N.am    1  UNL11      -0.0358
     19 C           0.0243   -0.0365    4.8851 C.2     1  UNL11       0.4340
     20 O           0.3862    0.2958    6.0564 O.2     1  UNL11      -0.2120
     21 C          -0.9252    0.7132    4.1993 C.2     1  UNL11       0.0740
     22 C          -1.3266    0.3637    2.9284 C.2     1  UNL11      -0.0072
     23 C          -2.3382    1.1831    2.2122 C.3     1  UNL11      -0.0252
     24 C          -1.9825    2.6502    2.4158 C.3     1  UNL11      -0.0487
     25 C          -1.5380    3.0017    3.7767 C.3     1  UNL11      -0.0484
     26 C          -1.5550    1.9172    4.7958 C.3     1  UNL11      -0.0176
     27 C           1.0423   -1.1485    0.0263 C.ar    1  UNL11      -0.0505
     28 C           4.5739   -1.4443   -0.9466 C.ar    1  UNL11      -0.0418
     29 H           8.0499   -3.1666   -0.5484 H       1  UNL11       0.1882
     30 H           6.5008    1.2484   -1.3736 H       1  UNL11       0.0625
     31 H           4.2965    2.3046   -1.2272 H       1  UNL11       0.0618
     32 H           2.2738    0.9688   -0.9038 H       1  UNL11       0.0624
     33 H           2.8254   -3.4058   -1.6539 H       1  UNL11       0.0624
     34 H           0.7419   -4.6914   -1.2793 H       1  UNL11       0.0618
     35 H          -1.1685   -3.6666   -0.0435 H       1  UNL11       0.0620
     36 H          -1.5132   -0.2829    0.3511 H       1  UNL11       0.0379
     37 H          -2.1071   -1.7807    1.0940 H       1  UNL11       0.0379
     38 H           1.2346   -1.6923    4.7323 H       1  UNL11       0.4828
     39 H          -3.3694    0.9841    2.5687 H       1  UNL11       0.0314
     40 H          -2.3020    1.0372    1.1113 H       1  UNL11       0.0314
     41 H          -2.8544    3.2363    2.0501 H       1  UNL11       0.0268
     42 H          -1.1454    2.8894    1.6974 H       1  UNL11       0.0268
     43 H          -0.4983    3.4417    3.7833 H       1  UNL11       0.0269
     44 H          -2.1726    3.8532    4.1628 H       1  UNL11       0.0269
     45 H          -2.5788    1.6269    5.1234 H       1  UNL11       0.0316
     46 H          -0.9753    2.2647    5.6756 H       1  UNL11       0.0316
     47 H           1.1371   -0.1266    0.3993 H       1  UNL11       0.0626
     48 H           4.6462   -2.5180   -0.8657 H       1  UNL11       0.0631
@<TRIPOS>BOND
     1     1     2    2
     2     2     3   am
     3     2     5    1
     4     3     4    1
     5     3    29    1
     6     5     6   ar
     7     6     7   ar
     8     6    30    1
     9     7     8   ar
    10     7    31    1
    11     8     9   ar
    12     8    32    1
    13     9    10    1
    14     9    28   ar
    15    10    11   ar
    16    11    12   ar
    17    11    33    1
    18    12    13   ar
    19    12    34    1
    20    13    14   ar
    21    13    35    1
    22    14    15    1
    23    14    27   ar
    24    15    16    1
    25    15    36    1
    26    15    37    1
    27    16    17    2
    28    17    18    1
    29    18    19   am
    30    18    38    1
    31    19    20    2
    32    19    21    1
    33    21    22    2
    34    22    23    1
    35    22    16    1
    36    23    24    1
    37    23    39    1
    38    23    40    1
    39    24    25    1
    40    24    41    1
    41    24    42    1
    42    25    26    1
    43    25    43    1
    44    25    44    1
    45    26    21    1
    46    26    45    1
    47    26    46    1
    48    27    10   ar
    49    27    47    1
    50    28     5   ar
    51    28    48    1
@<TRIPOS>MOLECULE
*****
 48 51 0 0 0
SMALL
GASTEIGER

@<TRIPOS>ATOM
      1 O           7.2837   -0.4346   -3.4131 O.2     1  UNL11      -0.2679
      2 C           6.0498   -0.5945   -3.3946 C.2     1  UNL11       0.2706
      3 N           5.3865   -1.0629   -4.5585 N.am    1  UNL11      -0.1481
      4 F           4.0397   -1.2278   -4.5539 F       1  UNL11      -0.1090
      5 C           5.2911   -0.3027   -2.1891 C.ar    1  UNL11       0.0395
      6 C           5.6234    0.6317   -1.2514 C.ar    1  UNL11      -0.0495
      7 C           4.8132    0.8111   -0.1270 C.ar    1  UNL11      -0.0605
      8 C           3.6790    0.0688    0.0686 C.ar    1  UNL11      -0.0540
      9 C           3.3254   -0.8772   -0.8617 C.ar    1  UNL11      -0.0172
     10 C           2.1192   -1.6859   -0.6550 C.ar    1  UNL11      -0.0176
     11 C           1.9911   -2.9747   -1.1215 C.ar    1  UNL11      -0.0540
     12 C           0.8134   -3.6866   -0.9033 C.ar    1  UNL11      -0.0609
     13 C          -0.2436   -3.1264   -0.2219 C.ar    1  UNL11      -0.0582
     14 C          -0.1224   -1.8466    0.2446 C.ar    1  UNL11      -0.0408
     15 C          -1.2134   -1.1314    0.9887 C.3     1  UNL11       0.0208
     16 C          -2.4366   -1.0249    0.1884 C.2     1  UNL11       0.1150
     17 N          -2.5097   -1.5286   -1.0582 N.2     1  UNL11      -0.0076
     18 N          -3.5986   -1.4294   -1.8045 N.am    1  UNL11      -0.0358
     19 C          -4.7179   -0.8123   -1.3628 C.2     1  UNL11       0.4340
     20 O          -5.7717   -0.7074   -2.0640 O.2     1  UNL11      -0.2120
     21 C          -4.6685   -0.2836   -0.0776 C.2     1  UNL11       0.0740
     22 C          -3.5317   -0.3904    0.6936 C.2     1  UNL11      -0.0072
     23 C          -3.5037    0.1769    2.0666 C.3     1  UNL11      -0.0252
     24 C          -4.8100   -0.1971    2.7551 C.3     1  UNL11      -0.0487
     25 C          -6.0132   -0.0940    1.9093 C.3     1  UNL11      -0.0484
     26 C          -5.8261    0.4220    0.5260 C.3     1  UNL11      -0.0176
     27 C           1.0423   -1.1485    0.0263 C.ar    1  UNL11      -0.0505
     28 C           4.1306   -1.0429   -1.9625 C.ar    1  UNL11      -0.0418
     29 H           5.9595   -1.2739   -5.3981 H       1  UNL11       0.1882
     30 H           6.5132    1.2252   -1.3920 H       1  UNL11       0.0625
     31 H           5.1095    1.5556    0.5869 H       1  UNL11       0.0618
     32 H           3.0843    0.2302    0.9358 H       1  UNL11       0.0624
     33 H           2.8254   -3.4058   -1.6539 H       1  UNL11       0.0624
     34 H           0.7419   -4.6914   -1.2793 H       1  UNL11       0.0618
     35 H          -1.1685   -3.6666   -0.0435 H       1  UNL11       0.0620
     36 H          -1.3492   -1.6809    1.9353 H       1  UNL11       0.0379
     37 H          -0.8941   -0.1041    1.2610 H       1  UNL11       0.0379
     38 H          -3.6106   -1.8321   -2.7642 H       1  UNL11       0.4828
     39 H          -3.3717    1.2782    2.0639 H       1  UNL11       0.0314
     40 H          -2.7135   -0.2803    2.6999 H       1  UNL11       0.0314
     41 H          -4.8522    0.4023    3.6911 H       1  UNL11       0.0268
     42 H          -4.7081   -1.2682    3.0962 H       1  UNL11       0.0268
     43 H          -6.5555   -1.0802    1.8209 H       1  UNL11       0.0269
     44 H          -6.7720    0.5636    2.4273 H       1  UNL11       0.0269
     45 H          -5.6086    1.5130    0.4809 H       1  UNL11       0.0316
     46 H          -6.7527    0.2109   -0.0466 H       1  UNL11       0.0316
     47 H           1.1371   -0.1266    0.3993 H       1  UNL11       0.0626
     48 H           3.8446   -1.7882   -2.6886 H       1  UNL11       0.0631
@<TRIPOS>BOND
     1     1     2    2
     2     2     3   am
     3     2     5    1
     4     3     4    1
     5     3    29    1
     6     5     6   ar
     7     6     7   ar
     8     6    30    1
     9     7     8   ar
    10     7    31    1
    11     8     9   ar
    12     8    32    1
    13     9    10    1
    14     9    28   ar
    15    10    11   ar
    16    11    12   ar
    17    11    33    1
    18    12    13   ar
    19    12    34    1
    20    13    14   ar
    21    13    35    1
    22    14    15    1
    23    14    27   ar
    24    15    16    1
    25    15    36    1
    26    15    37    1
    27    16    17    2
    28    17    18    1
    29    18    19   am
    30    18    38    1
    31    19    20    2
    32    19    21    1
    33    21    22    2
    34    22    23    1
    35    22    16    1
    36    23    24    1
    37    23    39    1
    38    23    40    1
    39    24    25    1
    40    24    41    1
    41    24    42    1
    42    25    26    1
    43    25    43    1
    44    25    44    1
    45    26    21    1
    46    26    45    1
    47    26    46    1
    48    27    10   ar
    49    27    47    1
    50    28     5   ar
    51    28    48    1
@<TRIPOS>MOLECULE
*****
 48 51 0 0 0
SMALL
GASTEIGER

@<TRIPOS>ATOM
      1 O           6.2823    2.2470    1.1163 O.2     1  UNL11      -0.2679
      2 C           5.1120    1.8966    0.8795 C.2     1  UNL11       0.2706
      3 N           4.0446    2.4791    1.6113 N.am    1  UNL11      -0.1481
      4 F           2.7658    2.0945    1.3710 F       1  UNL11      -0.1090
      5 C           4.8386    0.8961   -0.1394 C.ar    1  UNL11       0.0395
      6 C           5.5936    0.6753   -1.2548 C.ar    1  UNL11      -0.0495
      7 C           5.2181   -0.3143   -2.1673 C.ar    1  UNL11      -0.0605
      8 C           4.1001   -1.0820   -1.9767 C.ar    1  UNL11      -0.0540
      9 C           3.3254   -0.8772   -0.8617 C.ar    1  UNL11      -0.0172
     10 C           2.1192   -1.6859   -0.6550 C.ar    1  UNL11      -0.0176
     11 C           1.9911   -2.9747   -1.1215 C.ar    1  UNL11      -0.0540
     12 C           0.8134   -3.6866   -0.9033 C.ar    1  UNL11      -0.0609
     13 C          -0.2436   -3.1264   -0.2219 C.ar    1  UNL11      -0.0582
     14 C          -0.1224   -1.8466    0.2446 C.ar    1  UNL11      -0.0408
     15 C          -1.2134   -1.1314    0.9887 C.3     1  UNL11       0.0208
     16 C          -0.8175    0.2315    1.3547 C.2     1  UNL11       0.1150
     17 N           0.3936    0.7242    1.0332 N.2     1  UNL11      -0.0076
     18 N           0.7779    1.9461    1.3679 N.am    1  UNL11      -0.0358
     19 C          -0.0246    2.7870    2.0589 C.2     1  UNL11       0.4340
     20 O           0.3264    3.9622    2.3888 O.2     1  UNL11      -0.2120
     21 C          -1.2816    2.3020    2.4031 C.2     1  UNL11       0.0740
     22 C          -1.6749    1.0292    2.0516 C.2     1  UNL11      -0.0072
     23 C          -3.0252    0.5341    2.4248 C.3     1  UNL11      -0.0252
     24 C          -4.0282    1.6428    2.1329 C.3     1  UNL11      -0.0487
     25 C          -3.5829    2.9997    2.4990 C.3     1  UNL11      -0.0484
     26 C          -2.2573    3.1206    3.1648 C.3     1  UNL11      -0.0176
     27 C           1.0423   -1.1485    0.0263 C.ar    1  UNL11      -0.0505
     28 C           3.7063    0.0986    0.0273 C.ar    1  UNL11      -0.0418
     29 H           4.2736    3.1996    2.3227 H       1  UNL11       0.1882
     30 H           6.4779    1.2711   -1.4182 H       1  UNL11       0.0625
     31 H           5.8383   -0.4562   -3.0316 H       1  UNL11       0.0618
     32 H           3.8421   -1.8270   -2.6910 H       1  UNL11       0.0624
     33 H           2.8254   -3.4058   -1.6539 H       1  UNL11       0.0624
     34 H           0.7419   -4.6914   -1.2793 H       1  UNL11       0.0618
     35 H          -1.1685   -3.6666   -0.0435 H       1  UNL11       0.0620
     36 H          -2.1050   -1.1753    0.3411 H       1  UNL11       0.0379
     37 H          -1.4719   -1.6732    1.9220 H       1  UNL11       0.0379
     38 H           1.7245    2.2860    1.1000 H       1  UNL11       0.4828
     39 H          -3.0831    0.2337    3.4909 H       1  UNL11       0.0314
     40 H          -3.3569   -0.3163    1.7911 H       1  UNL11       0.0314
     41 H          -4.9858    1.3294    2.6042 H       1  UNL11       0.0268
     42 H          -4.2272    1.6235    1.0220 H       1  UNL11       0.0268
     43 H          -3.5683    3.6958    1.6103 H       1  UNL11       0.0269
     44 H          -4.3565    3.4715    3.1739 H       1  UNL11       0.0269
     45 H          -2.2490    2.7524    4.2155 H       1  UNL11       0.0316
     46 H          -1.9633    4.1903    3.1508 H       1  UNL11       0.0316
     47 H           1.1371   -0.1266    0.3993 H       1  UNL11       0.0626
     48 H           3.0917    0.2521    0.9010 H       1  UNL11       0.0631
@<TRIPOS>BOND
     1     1     2    2
     2     2     3   am
     3     2     5    1
     4     3     4    1
     5     3    29    1
     6     5     6   ar
     7     6     7   ar
     8     6    30    1
     9     7     8   ar
    10     7    31    1
    11     8     9   ar
    12     8    32    1
    13     9    10    1
    14     9    28   ar
    15    10    11   ar
    16    11    12   ar
    17    11    33    1
    18    12    13   ar
    19    12    34    1
    20    13    14   ar
    21    13    35    1
    22    14    15    1
    23    14    27   ar
    24    15    16    1
    25    15    36    1
    26    15    37    1
    27    16    17    2
    28    17    18    1
    29    18    19   am
    30    18    38    1
    31    19    20    2
    32    19    21    1
    33    21    22    2
    34    22    23    1
    35    22    16    1
    36    23    24    1
    37    23    39    1
    38    23    40    1
    39    24    25    1
    40    24    41    1
    41    24    42    1
    42    25    26    1
    43    25    43    1
    44    25    44    1
    45    26    21    1
    46    26    45    1
    47    26    46    1
    48    27    10   ar
    49    27    47    1
    50    28     5   ar
    51    28    48    1
@<TRIPOS>MOLECULE
*****
 48 51 0 0 0
SMALL
GASTEIGER

@<TRIPOS>ATOM
      1 O           3.0410    3.2062   -1.1566 O.2     1  UNL11      -0.2679
      2 C           4.1842    2.7295   -1.2767 C.2     1  UNL11       0.2706
      3 N           5.2830    3.5956   -1.5143 N.am    1  UNL11      -0.1481
      4 F           5.0854    4.9345   -1.6100 F       1  UNL11      -0.1090
      5 C           4.3940    1.2944   -1.1756 C.ar    1  UNL11       0.0395
      6 C           5.5992    0.6615   -1.2764 C.ar    1  UNL11      -0.0495
      7 C           5.6678   -0.7303   -1.1706 C.ar    1  UNL11      -0.0605
      8 C           4.5485   -1.4925   -0.9660 C.ar    1  UNL11      -0.0540
      9 C           3.3254   -0.8772   -0.8617 C.ar    1  UNL11      -0.0172
     10 C           2.1192   -1.6859   -0.6550 C.ar    1  UNL11      -0.0176
     11 C           1.9911   -2.9747   -1.1215 C.ar    1  UNL11      -0.0540
     12 C           0.8134   -3.6866   -0.9033 C.ar    1  UNL11      -0.0609
     13 C          -0.2436   -3.1264   -0.2219 C.ar    1  UNL11      -0.0582
     14 C          -0.1224   -1.8466    0.2446 C.ar    1  UNL11      -0.0408
     15 C          -1.2134   -1.1314    0.9887 C.3     1  UNL11       0.0208
     16 C          -1.1687    0.3155    0.7590 C.2     1  UNL11       0.1150
     17 N          -0.0112    0.9530    0.5015 N.2     1  UNL11      -0.0076
     18 N           0.0545    2.2609    0.3071 N.am    1  UNL11      -0.0358
     19 C          -1.0430    3.0496    0.3540 C.2     1  UNL11       0.4340
     20 O          -0.9998    4.3056    0.1702 O.2     1  UNL11      -0.2120
     21 C          -2.2519    2.4151    0.6182 C.2     1  UNL11       0.0740
     22 C          -2.3127    1.0535    0.8196 C.2     1  UNL11      -0.0072
     23 C          -3.6165    0.3959    1.0945 C.3     1  UNL11      -0.0252
     24 C          -4.6442    0.9703    0.1278 C.3     1  UNL11      -0.0487
     25 C          -4.5522    2.4256   -0.0889 C.3     1  UNL11      -0.0484
     26 C          -3.5301    3.1645    0.7011 C.3     1  UNL11      -0.0176
     27 C           1.0423   -1.1485    0.0263 C.ar    1  UNL11      -0.0505
     28 C           3.2724    0.4916   -0.9672 C.ar    1  UNL11      -0.0418
     29 H           6.2268    3.1745   -1.6134 H       1  UNL11       0.1882
     30 H           6.4901    1.2484   -1.4363 H       1  UNL11       0.0625
     31 H           6.6341   -1.1893   -1.2558 H       1  UNL11       0.0618
     32 H           4.6354   -2.5501   -0.8903 H       1  UNL11       0.0624
     33 H           2.8254   -3.4058   -1.6539 H       1  UNL11       0.0624
     34 H           0.7419   -4.6914   -1.2793 H       1  UNL11       0.0618
     35 H          -1.1685   -3.6666   -0.0435 H       1  UNL11       0.0620
     36 H          -2.1592   -1.6017    0.6715 H       1  UNL11       0.0379
     37 H          -1.1227   -1.3058    2.0808 H       1  UNL11       0.0379
     38 H           0.9716    2.7131    0.1123 H       1  UNL11       0.4828
     39 H          -3.9492    0.5435    2.1422 H       1  UNL11       0.0314
     40 H          -3.6000   -0.6922    0.8703 H       1  UNL11       0.0314
     41 H          -5.6379    0.6195    0.4841 H       1  UNL11       0.0268
     42 H          -4.4885    0.4544   -0.8639 H       1  UNL11       0.0268
     43 H          -4.3769    2.6828   -1.1741 H       1  UNL11       0.0269
     44 H          -5.5594    2.8933    0.1197 H       1  UNL11       0.0269
     45 H          -3.7851    3.2650    1.7802 H       1  UNL11       0.0316
     46 H          -3.4186    4.1751    0.2570 H       1  UNL11       0.0316
     47 H           1.1371   -0.1266    0.3993 H       1  UNL11       0.0626
     48 H           2.3070    0.9665   -0.8834 H       1  UNL11       0.0631
@<TRIPOS>BOND
     1     1     2    2
     2     2     3   am
     3     2     5    1
     4     3     4    1
     5     3    29    1
     6     5     6   ar
     7     6     7   ar
     8     6    30    1
     9     7     8   ar
    10     7    31    1
    11     8     9   ar
    12     8    32    1
    13     9    10    1
    14     9    28   ar
    15    10    11   ar
    16    11    12   ar
    17    11    33    1
    18    12    13   ar
    19    12    34    1
    20    13    14   ar
    21    13    35    1
    22    14    15    1
    23    14    27   ar
    24    15    16    1
    25    15    36    1
    26    15    37    1
    27    16    17    2
    28    17    18    1
    29    18    19   am
    30    18    38    1
    31    19    20    2
    32    19    21    1
    33    21    22    2
    34    22    23    1
    35    22    16    1
    36    23    24    1
    37    23    39    1
    38    23    40    1
    39    24    25    1
    40    24    41    1
    41    24    42    1
    42    25    26    1
    43    25    43    1
    44    25    44    1
    45    26    21    1
    46    26    45    1
    47    26    46    1
    48    27    10   ar
    49    27    47    1
    50    28     5   ar
    51    28    48    1
@<TRIPOS>MOLECULE
*****
 48 51 0 0 0
SMALL
GASTEIGER

@<TRIPOS>ATOM
      1 O           3.0410    3.2062   -1.1566 O.2     1  UNL11      -0.2679
      2 C           4.1842    2.7295   -1.2767 C.2     1  UNL11       0.2706
      3 N           5.2830    3.5956   -1.5143 N.am    1  UNL11      -0.1481
      4 F           5.0854    4.9345   -1.6100 F       1  UNL11      -0.1090
      5 C           4.3940    1.2944   -1.1756 C.ar    1  UNL11       0.0395
      6 C           5.5992    0.6615   -1.2764 C.ar    1  UNL11      -0.0495
      7 C           5.6678   -0.7303   -1.1706 C.ar    1  UNL11      -0.0605
      8 C           4.5485   -1.4925   -0.9660 C.ar    1  UNL11      -0.0540
      9 C           3.3254   -0.8772   -0.8617 C.ar    1  UNL11      -0.0172
     10 C           2.1192   -1.6859   -0.6550 C.ar    1  UNL11      -0.0176
     11 C           1.9911   -2.9747   -1.1215 C.ar    1  UNL11      -0.0540
     12 C           0.8134   -3.6866   -0.9033 C.ar    1  UNL11      -0.0609
     13 C          -0.2436   -3.1264   -0.2219 C.ar    1  UNL11      -0.0582
     14 C          -0.1224   -1.8466    0.2446 C.ar    1  UNL11      -0.0408
     15 C          -1.2134   -1.1314    0.9887 C.3     1  UNL11       0.0208
     16 C          -2.0939   -0.3905    0.0810 C.2     1  UNL11       0.1150
     17 N          -3.1315    0.3341    0.5405 N.2     1  UNL11      -0.0076
     18 N          -3.9489    0.9976   -0.2622 N.am    1  UNL11      -0.0358
     19 C          -3.7959    0.9926   -1.6058 C.2     1  UNL11       0.4340
     20 O          -4.5696    1.6227   -2.3918 O.2     1  UNL11      -0.2120
     21 C          -2.7309    0.2515   -2.1061 C.2     1  UNL11       0.0740
     22 C          -1.8843   -0.4366   -1.2647 C.2     1  UNL11      -0.0072
     23 C          -0.7490   -1.2171   -1.8213 C.3     1  UNL11      -0.0252
     24 C          -0.0751   -0.3669   -2.8905 C.3     1  UNL11      -0.0487
     25 C          -0.9963    0.3761   -3.7696 C.3     1  UNL11      -0.0484
     26 C          -2.4538    0.1590   -3.5611 C.3     1  UNL11      -0.0176
     27 C           1.0423   -1.1485    0.0263 C.ar    1  UNL11      -0.0505
     28 C           3.2724    0.4916   -0.9672 C.ar    1  UNL11      -0.0418
     29 H           6.2268    3.1745   -1.6134 H       1  UNL11       0.1882
     30 H           6.4901    1.2484   -1.4363 H       1  UNL11       0.0625
     31 H           6.6341   -1.1893   -1.2558 H       1  UNL11       0.0618
     32 H           4.6354   -2.5501   -0.8903 H       1  UNL11       0.0624
     33 H           2.8254   -3.4058   -1.6539 H       1  UNL11       0.0624
     34 H           0.7419   -4.6914   -1.2793 H       1  UNL11       0.0618
     35 H          -1.1685   -3.6666   -0.0435 H       1  UNL11       0.0620
     36 H          -1.7346   -1.9013    1.5820 H       1  UNL11       0.0379
     37 H          -0.7850   -0.4083    1.7132 H       1  UNL11       0.0379
     38 H          -4.7400    1.5441    0.1362 H       1  UNL11       0.4828
     39 H          -1.0753   -2.1867   -2.2497 H       1  UNL11       0.0314
     40 H           0.0479   -1.4040   -1.0698 H       1  UNL11       0.0314
     41 H           0.6302   -1.0401   -3.4260 H       1  UNL11       0.0268
     42 H           0.5806    0.3790   -2.3540 H       1  UNL11       0.0268
     43 H          -0.8207    1.4903   -3.7236 H       1  UNL11       0.0269
     44 H          -0.7573    0.1292   -4.8460 H       1  UNL11       0.0269
     45 H          -2.8112   -0.8384   -3.9031 H       1  UNL11       0.0316
     46 H          -3.0004    0.9512   -4.1129 H       1  UNL11       0.0316
     47 H           1.1371   -0.1266    0.3993 H       1  UNL11       0.0626
     48 H           2.3070    0.9665   -0.8834 H       1  UNL11       0.0631
@<TRIPOS>BOND
     1     1     2    2
     2     2     3   am
     3     2     5    1
     4     3     4    1
     5     3    29    1
     6     5     6   ar
     7     6     7   ar
     8     6    30    1
     9     7     8   ar
    10     7    31    1
    11     8     9   ar
    12     8    32    1
    13     9    10    1
    14     9    28   ar
    15    10    11   ar
    16    11    12   ar
    17    11    33    1
    18    12    13   ar
    19    12    34    1
    20    13    14   ar
    21    13    35    1
    22    14    15    1
    23    14    27   ar
    24    15    16    1
    25    15    36    1
    26    15    37    1
    27    16    17    2
    28    17    18    1
    29    18    19   am
    30    18    38    1
    31    19    20    2
    32    19    21    1
    33    21    22    2
    34    22    23    1
    35    22    16    1
    36    23    24    1
    37    23    39    1
    38    23    40    1
    39    24    25    1
    40    24    41    1
    41    24    42    1
    42    25    26    1
    43    25    43    1
    44    25    44    1
    45    26    21    1
    46    26    45    1
    47    26    46    1
    48    27    10   ar
    49    27    47    1
    50    28     5   ar
    51    28    48    1
@<TRIPOS>MOLECULE
*****
 48 51 0 0 0
SMALL
GASTEIGER

@<TRIPOS>ATOM
      1 O           4.3637    2.0063    1.8676 O.2     1  UNL11      -0.2679
      2 C           5.1120    1.8966    0.8795 C.2     1  UNL11       0.2706
      3 N           6.2347    2.7554    0.7521 N.am    1  UNL11      -0.1481
      4 F           6.4877    3.6897    1.7029 F       1  UNL11      -0.1090
      5 C           4.8386    0.8961   -0.1394 C.ar    1  UNL11       0.0395
      6 C           5.5936    0.6753   -1.2548 C.ar    1  UNL11      -0.0495
      7 C           5.2181   -0.3143   -2.1673 C.ar    1  UNL11      -0.0605
      8 C           4.1001   -1.0820   -1.9767 C.ar    1  UNL11      -0.0540
      9 C           3.3254   -0.8772   -0.8617 C.ar    1  UNL11      -0.0172
     10 C           2.1192   -1.6859   -0.6550 C.ar    1  UNL11      -0.0176
     11 C           1.9911   -2.9747   -1.1215 C.ar    1  UNL11      -0.0540
     12 C           0.8134   -3.6866   -0.9033 C.ar    1  UNL11      -0.0609
     13 C          -0.2436   -3.1264   -0.2219 C.ar    1  UNL11      -0.0582
     14 C          -0.1224   -1.8466    0.2446 C.ar    1  UNL11      -0.0408
     15 C          -1.2134   -1.1314    0.9887 C.3     1  UNL11       0.0208
     16 C          -0.7842   -0.7356    2.3330 C.2     1  UNL11       0.1150
     17 N          -0.9581   -1.5442    3.3954 N.2     1  UNL11      -0.0076
     18 N          -0.5930   -1.2003    4.6206 N.am    1  UNL11      -0.0358
     19 C          -0.0168   -0.0068    4.8894 C.2     1  UNL11       0.4340
     20 O           0.3402    0.3406    6.0578 O.2     1  UNL11      -0.2120
     21 C           0.1745    0.8471    3.8087 C.2     1  UNL11       0.0740
     22 C          -0.2081    0.4826    2.5363 C.2     1  UNL11      -0.0072
     23 C           0.0116    1.4089    1.3954 C.3     1  UNL11      -0.0252
     24 C           1.4140    1.9890    1.5260 C.3     1  UNL11      -0.0487
     25 C           1.8125    2.3563    2.8970 C.3     1  UNL11      -0.0484
     26 C           0.7918    2.1873    3.9669 C.3     1  UNL11      -0.0176
     27 C           1.0423   -1.1485    0.0263 C.ar    1  UNL11      -0.0505
     28 C           3.7063    0.0986    0.0273 C.ar    1  UNL11      -0.0418
     29 H           6.8431    2.6466   -0.0821 H       1  UNL11       0.1882
     30 H           6.4779    1.2711   -1.4182 H       1  UNL11       0.0625
     31 H           5.8383   -0.4562   -3.0316 H       1  UNL11       0.0618
     32 H           3.8421   -1.8270   -2.6910 H       1  UNL11       0.0624
     33 H           2.8254   -3.4058   -1.6539 H       1  UNL11       0.0624
     34 H           0.7419   -4.6914   -1.2793 H       1  UNL11       0.0618
     35 H          -1.1685   -3.6666   -0.0435 H       1  UNL11       0.0620
     36 H          -1.5132   -0.2829    0.3511 H       1  UNL11       0.0379
     37 H          -2.1071   -1.7807    1.0940 H       1  UNL11       0.0379
     38 H          -0.7480   -1.8563    5.4136 H       1  UNL11       0.4828
     39 H          -0.7405    2.2235    1.3644 H       1  UNL11       0.0314
     40 H           0.0166    0.8841    0.4161 H       1  UNL11       0.0314
     41 H           1.4777    2.8201    0.7894 H       1  UNL11       0.0268
     42 H           2.1319    1.2047    1.1470 H       1  UNL11       0.0268
     43 H           2.7358    1.8007    3.2338 H       1  UNL11       0.0269
     44 H           2.1517    3.4340    2.9056 H       1  UNL11       0.0269
     45 H          -0.0301    2.9372    3.9238 H       1  UNL11       0.0316
     46 H           1.3064    2.2660    4.9467 H       1  UNL11       0.0316
     47 H           1.1371   -0.1266    0.3993 H       1  UNL11       0.0626
     48 H           3.0917    0.2521    0.9010 H       1  UNL11       0.0631
@<TRIPOS>BOND
     1     1     2    2
     2     2     3   am
     3     2     5    1
     4     3     4    1
     5     3    29    1
     6     5     6   ar
     7     6     7   ar
     8     6    30    1
     9     7     8   ar
    10     7    31    1
    11     8     9   ar
    12     8    32    1
    13     9    10    1
    14     9    28   ar
    15    10    11   ar
    16    11    12   ar
    17    11    33    1
    18    12    13   ar
    19    12    34    1
    20    13    14   ar
    21    13    35    1
    22    14    15    1
    23    14    27   ar
    24    15    16    1
    25    15    36    1
    26    15    37    1
    27    16    17    2
    28    17    18    1
    29    18    19   am
    30    18    38    1
    31    19    20    2
    32    19    21    1
    33    21    22    2
    34    22    23    1
    35    22    16    1
    36    23    24    1
    37    23    39    1
    38    23    40    1
    39    24    25    1
    40    24    41    1
    41    24    42    1
    42    25    26    1
    43    25    43    1
    44    25    44    1
    45    26    21    1
    46    26    45    1
    47    26    46    1
    48    27    10   ar
    49    27    47    1
    50    28     5   ar
    51    28    48    1
@<TRIPOS>MOLECULE
*****
 48 51 0 0 0
SMALL
GASTEIGER

@<TRIPOS>ATOM
      1 O           6.1037    2.6413    0.7771 O.2     1  UNL11      -0.2679
      2 C           5.1120    1.8966    0.8795 C.2     1  UNL11       0.2706
      3 N           4.2491    2.0289    1.9984 N.am    1  UNL11      -0.1481
      4 F           4.5065    2.9620    2.9492 F       1  UNL11      -0.1090
      5 C           4.8386    0.8961   -0.1394 C.ar    1  UNL11       0.0395
      6 C           5.5936    0.6753   -1.2548 C.ar    1  UNL11      -0.0495
      7 C           5.2181   -0.3143   -2.1673 C.ar    1  UNL11      -0.0605
      8 C           4.1001   -1.0820   -1.9767 C.ar    1  UNL11      -0.0540
      9 C           3.3254   -0.8772   -0.8617 C.ar    1  UNL11      -0.0172
     10 C           2.1192   -1.6859   -0.6550 C.ar    1  UNL11      -0.0176
     11 C           1.9911   -2.9747   -1.1215 C.ar    1  UNL11      -0.0540
     12 C           0.8134   -3.6866   -0.9033 C.ar    1  UNL11      -0.0609
     13 C          -0.2436   -3.1264   -0.2219 C.ar    1  UNL11      -0.0582
     14 C          -0.1224   -1.8466    0.2446 C.ar    1  UNL11      -0.0408
     15 C          -1.2134   -1.1314    0.9887 C.3     1  UNL11       0.0208
     16 C          -1.5690   -1.8253    2.2297 C.2     1  UNL11       0.1150
     17 N          -2.5324   -2.7653    2.2608 N.2     1  UNL11      -0.0076
     18 N          -2.8808   -3.3927    3.3733 N.am    1  UNL11      -0.0358
     19 C          -2.2889   -3.1307    4.5606 C.2     1  UNL11       0.4340
     20 O          -2.6095   -3.7221    5.6380 O.2     1  UNL11      -0.2120
     21 C          -1.2898   -2.1635    4.5555 C.2     1  UNL11       0.0740
     22 C          -0.9324   -1.5145    3.3939 C.2     1  UNL11      -0.0072
     23 C           0.1424   -0.4886    3.4110 C.3     1  UNL11      -0.0252
     24 C           1.2932   -1.0293    4.2499 C.3     1  UNL11      -0.0487
     25 C           0.8910   -1.7363    5.4795 C.3     1  UNL11      -0.0484
     26 C          -0.5637   -1.7784    5.7912 C.3     1  UNL11      -0.0176
     27 C           1.0423   -1.1485    0.0263 C.ar    1  UNL11      -0.0505
     28 C           3.7063    0.0986    0.0273 C.ar    1  UNL11      -0.0418
     29 H           3.4296    1.3948    2.0632 H       1  UNL11       0.1882
     30 H           6.4779    1.2711   -1.4182 H       1  UNL11       0.0625
     31 H           5.8383   -0.4562   -3.0316 H       1  UNL11       0.0618
     32 H           3.8421   -1.8270   -2.6910 H       1  UNL11       0.0624
     33 H           2.8254   -3.4058   -1.6539 H       1  UNL11       0.0624
     34 H           0.7419   -4.6914   -1.2793 H       1  UNL11       0.0618
     35 H          -1.1685   -3.6666   -0.0435 H       1  UNL11       0.0620
     36 H          -0.8527   -0.1009    1.1445 H       1  UNL11       0.0379
     37 H          -2.1288   -1.0566    0.3660 H       1  UNL11       0.0379
     38 H          -3.6328   -4.1120    3.3519 H       1  UNL11       0.4828
     39 H          -0.2086    0.4813    3.8189 H       1  UNL11       0.0314
     40 H           0.5850   -0.3192    2.4061 H       1  UNL11       0.0314
     41 H           1.9868   -0.1756    4.4153 H       1  UNL11       0.0268
     42 H           1.8657   -1.7513    3.5980 H       1  UNL11       0.0268
     43 H           1.2610   -2.8027    5.4962 H       1  UNL11       0.0269
     44 H           1.4234   -1.2726    6.3616 H       1  UNL11       0.0269
     45 H          -0.9779   -0.8011    6.1271 H       1  UNL11       0.0316
     46 H          -0.7216   -2.5347    6.5875 H       1  UNL11       0.0316
     47 H           1.1371   -0.1266    0.3993 H       1  UNL11       0.0626
     48 H           3.0917    0.2521    0.9010 H       1  UNL11       0.0631
@<TRIPOS>BOND
     1     1     2    2
     2     2     3   am
     3     2     5    1
     4     3     4    1
     5     3    29    1
     6     5     6   ar
     7     6     7   ar
     8     6    30    1
     9     7     8   ar
    10     7    31    1
    11     8     9   ar
    12     8    32    1
    13     9    10    1
    14     9    28   ar
    15    10    11   ar
    16    11    12   ar
    17    11    33    1
    18    12    13   ar
    19    12    34    1
    20    13    14   ar
    21    13    35    1
    22    14    15    1
    23    14    27   ar
    24    15    16    1
    25    15    36    1
    26    15    37    1
    27    16    17    2
    28    17    18    1
    29    18    19   am
    30    18    38    1
    31    19    20    2
    32    19    21    1
    33    21    22    2
    34    22    23    1
    35    22    16    1
    36    23    24    1
    37    23    39    1
    38    23    40    1
    39    24    25    1
    40    24    41    1
    41    24    42    1
    42    25    26    1
    43    25    43    1
    44    25    44    1
    45    26    21    1
    46    26    45    1
    47    26    46    1
    48    27    10   ar
    49    27    47    1
    50    28     5   ar
    51    28    48    1
@<TRIPOS>MOLECULE
*****
 48 51 0 0 0
SMALL
GASTEIGER

@<TRIPOS>ATOM
      1 O           5.6963    2.9536    0.5797 O.2     1  UNL11      -0.2679
      2 C           5.1120    1.8966    0.8795 C.2     1  UNL11       0.2706
      3 N           4.7146    1.6726    2.2234 N.am    1  UNL11      -0.1481
      4 F           4.9719    2.6065    3.1734 F       1  UNL11      -0.1090
      5 C           4.8386    0.8961   -0.1394 C.ar    1  UNL11       0.0395
      6 C           5.5936    0.6753   -1.2548 C.ar    1  UNL11      -0.0495
      7 C           5.2181   -0.3143   -2.1673 C.ar    1  UNL11      -0.0605
      8 C           4.1001   -1.0820   -1.9767 C.ar    1  UNL11      -0.0540
      9 C           3.3254   -0.8772   -0.8617 C.ar    1  UNL11      -0.0172
     10 C           2.1192   -1.6859   -0.6550 C.ar    1  UNL11      -0.0176
     11 C           1.9911   -2.9747   -1.1215 C.ar    1  UNL11      -0.0540
     12 C           0.8134   -3.6866   -0.9033 C.ar    1  UNL11      -0.0609
     13 C          -0.2436   -3.1264   -0.2219 C.ar    1  UNL11      -0.0582
     14 C          -0.1224   -1.8466    0.2446 C.ar    1  UNL11      -0.0408
     15 C          -1.2134   -1.1314    0.9887 C.3     1  UNL11       0.0208
     16 C          -2.4040   -1.9715    1.1460 C.2     1  UNL11       0.1150
     17 N          -3.0642   -2.4653    0.0815 N.2     1  UNL11      -0.0076
     18 N          -4.1506   -3.2124    0.2000 N.am    1  UNL11      -0.0358
     19 C          -4.6737   -3.5325    1.4052 C.2     1  UNL11       0.4340
     20 O          -5.7148   -4.2477    1.5389 O.2     1  UNL11      -0.2120
     21 C          -4.0100   -3.0349    2.5213 C.2     1  UNL11       0.0740
     22 C          -2.8798   -2.2578    2.3905 C.2     1  UNL11      -0.0072
     23 C          -2.1834   -1.7420    3.5974 C.3     1  UNL11      -0.0252
     24 C          -2.0942   -2.8778    4.6085 C.3     1  UNL11      -0.0487
     25 C          -3.3063   -3.7094    4.7217 C.3     1  UNL11      -0.0484
     26 C          -4.4816   -3.3081    3.9016 C.3     1  UNL11      -0.0176
     27 C           1.0423   -1.1485    0.0263 C.ar    1  UNL11      -0.0505
     28 C           3.7063    0.0986    0.0273 C.ar    1  UNL11      -0.0418
     29 H           4.2309    0.7823    2.4497 H       1  UNL11       0.1882
     30 H           6.4779    1.2711   -1.4182 H       1  UNL11       0.0625
     31 H           5.8383   -0.4562   -3.0316 H       1  UNL11       0.0618
     32 H           3.8421   -1.8270   -2.6910 H       1  UNL11       0.0624
     33 H           2.8254   -3.4058   -1.6539 H       1  UNL11       0.0624
     34 H           0.7419   -4.6914   -1.2793 H       1  UNL11       0.0618
     35 H          -1.1685   -3.6666   -0.0435 H       1  UNL11       0.0620
     36 H          -0.7699   -0.8073    1.9451 H       1  UNL11       0.0379
     37 H          -1.5159   -0.2094    0.4504 H       1  UNL11       0.0379
     38 H          -4.6307   -3.5720   -0.6506 H       1  UNL11       0.4828
     39 H          -2.7044   -0.8701    4.0430 H       1  UNL11       0.0314
     40 H          -1.1265   -1.4661    3.3935 H       1  UNL11       0.0314
     41 H          -1.7595   -2.4188    5.5648 H       1  UNL11       0.0268
     42 H          -1.2395   -3.5405    4.2855 H       1  UNL11       0.0268
     43 H          -3.0995   -4.7947    4.4896 H       1  UNL11       0.0269
     44 H          -3.6306   -3.7421    5.8036 H       1  UNL11       0.0269
     45 H          -4.9882   -2.3863    4.2665 H       1  UNL11       0.0316
     46 H          -5.2058   -4.1486    3.9067 H       1  UNL11       0.0316
     47 H           1.1371   -0.1266    0.3993 H       1  UNL11       0.0626
     48 H           3.0917    0.2521    0.9010 H       1  UNL11       0.0631
@<TRIPOS>BOND
     1     1     2    2
     2     2     3   am
     3     2     5    1
     4     3     4    1
     5     3    29    1
     6     5     6   ar
     7     6     7   ar
     8     6    30    1
     9     7     8   ar
    10     7    31    1
    11     8     9   ar
    12     8    32    1
    13     9    10    1
    14     9    28   ar
    15    10    11   ar
    16    11    12   ar
    17    11    33    1
    18    12    13   ar
    19    12    34    1
    20    13    14   ar
    21    13    35    1
    22    14    15    1
    23    14    27   ar
    24    15    16    1
    25    15    36    1
    26    15    37    1
    27    16    17    2
    28    17    18    1
    29    18    19   am
    30    18    38    1
    31    19    20    2
    32    19    21    1
    33    21    22    2
    34    22    23    1
    35    22    16    1
    36    23    24    1
    37    23    39    1
    38    23    40    1
    39    24    25    1
    40    24    41    1
    41    24    42    1
    42    25    26    1
    43    25    43    1
    44    25    44    1
    45    26    21    1
    46    26    45    1
    47    26    46    1
    48    27    10   ar
    49    27    47    1
    50    28     5   ar
    51    28    48    1
@<TRIPOS>MOLECULE
*****
 48 51 0 0 0
SMALL
GASTEIGER

@<TRIPOS>ATOM
      1 O           3.8459    2.8087    0.9858 O.2     1  UNL11      -0.2679
      2 C           4.5063    2.5650   -0.0403 C.2     1  UNL11       0.2706
      3 N           5.2184    3.6125   -0.6805 N.am    1  UNL11      -0.1481
      4 F           5.9305    3.3610   -1.8076 F       1  UNL11      -0.1090
      5 C           4.5481    1.2163   -0.5817 C.ar    1  UNL11       0.0395
      6 C           5.5946    0.6706   -1.2675 C.ar    1  UNL11      -0.0495
      7 C           5.5079   -0.6391   -1.7470 C.ar    1  UNL11      -0.0605
      8 C           4.3904   -1.4056   -1.5487 C.ar    1  UNL11      -0.0540
      9 C           3.3254   -0.8772   -0.8617 C.ar    1  UNL11      -0.0172
     10 C           2.1192   -1.6859   -0.6550 C.ar    1  UNL11      -0.0176
     11 C           1.9911   -2.9747   -1.1215 C.ar    1  UNL11      -0.0540
     12 C           0.8134   -3.6866   -0.9033 C.ar    1  UNL11      -0.0609
     13 C          -0.2436   -3.1264   -0.2219 C.ar    1  UNL11      -0.0582
     14 C          -0.1224   -1.8466    0.2446 C.ar    1  UNL11      -0.0408
     15 C          -1.2134   -1.1314    0.9887 C.3     1  UNL11       0.0208
     16 C          -2.5427   -1.5924    0.5782 C.2     1  UNL11       0.1150
     17 N          -2.9220   -2.8753    0.7300 N.2     1  UNL11      -0.0076
     18 N          -4.1114   -3.3168    0.3515 N.am    1  UNL11      -0.0358
     19 C          -5.0313   -2.5042   -0.2162 C.2     1  UNL11       0.4340
     20 O          -6.1770   -2.9092   -0.5856 O.2     1  UNL11      -0.2120
     21 C          -4.6641   -1.1734   -0.3839 C.2     1  UNL11       0.0740
     22 C          -3.4246   -0.7210    0.0124 C.2     1  UNL11      -0.0072
     23 C          -3.0560    0.7067   -0.1711 C.3     1  UNL11      -0.0252
     24 C          -4.2428    1.5568    0.2640 C.3     1  UNL11      -0.0487
     25 C          -5.5618    1.0475   -0.1535 C.3     1  UNL11      -0.0484
     26 C          -5.5783   -0.1783   -0.9973 C.3     1  UNL11      -0.0176
     27 C           1.0423   -1.1485    0.0263 C.ar    1  UNL11      -0.0505
     28 C           3.4241    0.4114   -0.3955 C.ar    1  UNL11      -0.0418
     29 H           5.1776    4.5611   -0.2606 H       1  UNL11       0.1882
     30 H           6.4823    1.2615   -1.4306 H       1  UNL11       0.0625
     31 H           6.3521   -1.0308   -2.2815 H       1  UNL11       0.0618
     32 H           4.3566   -2.3993   -1.9272 H       1  UNL11       0.0624
     33 H           2.8254   -3.4058   -1.6539 H       1  UNL11       0.0624
     34 H           0.7419   -4.6914   -1.2793 H       1  UNL11       0.0618
     35 H          -1.1685   -3.6666   -0.0435 H       1  UNL11       0.0620
     36 H          -1.0029   -1.2831    2.0606 H       1  UNL11       0.0379
     37 H          -1.1608   -0.0381    0.8064 H       1  UNL11       0.0379
     38 H          -4.3624   -4.3178    0.4862 H       1  UNL11       0.4828
     39 H          -2.7808    0.9384   -1.2203 H       1  UNL11       0.0314
     40 H          -2.2268    1.0215    0.4981 H       1  UNL11       0.0314
     41 H          -4.0227    2.5945   -0.0705 H       1  UNL11       0.0268
     42 H          -4.2213    1.6006    1.3917 H       1  UNL11       0.0268
     43 H          -6.2382    0.8479    0.7282 H       1  UNL11       0.0269
     44 H          -6.1113    1.8623   -0.7111 H       1  UNL11       0.0269
     45 H          -5.2294   -0.0080   -2.0408 H       1  UNL11       0.0316
     46 H          -6.6177   -0.5654   -1.0188 H       1  UNL11       0.0316
     47 H           1.1371   -0.1266    0.3993 H       1  UNL11       0.0626
     48 H           2.5825    0.8181    0.1438 H       1  UNL11       0.0631
@<TRIPOS>BOND
     1     1     2    2
     2     2     3   am
     3     2     5    1
     4     3     4    1
     5     3    29    1
     6     5     6   ar
     7     6     7   ar
     8     6    30    1
     9     7     8   ar
    10     7    31    1
    11     8     9   ar
    12     8    32    1
    13     9    10    1
    14     9    28   ar
    15    10    11   ar
    16    11    12   ar
    17    11    33    1
    18    12    13   ar
    19    12    34    1
    20    13    14   ar
    21    13    35    1
    22    14    15    1
    23    14    27   ar
    24    15    16    1
    25    15    36    1
    26    15    37    1
    27    16    17    2
    28    17    18    1
    29    18    19   am
    30    18    38    1
    31    19    20    2
    32    19    21    1
    33    21    22    2
    34    22    23    1
    35    22    16    1
    36    23    24    1
    37    23    39    1
    38    23    40    1
    39    24    25    1
    40    24    41    1
    41    24    42    1
    42    25    26    1
    43    25    43    1
    44    25    44    1
    45    26    21    1
    46    26    45    1
    47    26    46    1
    48    27    10   ar
    49    27    47    1
    50    28     5   ar
    51    28    48    1
@<TRIPOS>MOLECULE
*****
 48 51 0 0 0
SMALL
GASTEIGER

@<TRIPOS>ATOM
      1 O           5.0786    3.5204   -0.9261 O.2     1  UNL11      -0.2679
      2 C           4.1842    2.7295   -1.2767 C.2     1  UNL11       0.2706
      3 N           2.9561    3.2370   -1.7753 N.am    1  UNL11      -0.1481
      4 F           2.7612    4.5765   -1.8676 F       1  UNL11      -0.1090
      5 C           4.3940    1.2944   -1.1756 C.ar    1  UNL11       0.0395
      6 C           5.5992    0.6615   -1.2764 C.ar    1  UNL11      -0.0495
      7 C           5.6678   -0.7303   -1.1706 C.ar    1  UNL11      -0.0605
      8 C           4.5485   -1.4925   -0.9660 C.ar    1  UNL11      -0.0540
      9 C           3.3254   -0.8772   -0.8617 C.ar    1  UNL11      -0.0172
     10 C           2.1192   -1.6859   -0.6550 C.ar    1  UNL11      -0.0176
     11 C           1.9911   -2.9747   -1.1215 C.ar    1  UNL11      -0.0540
     12 C           0.8134   -3.6866   -0.9033 C.ar    1  UNL11      -0.0609
     13 C          -0.2436   -3.1264   -0.2219 C.ar    1  UNL11      -0.0582
     14 C          -0.1224   -1.8466    0.2446 C.ar    1  UNL11      -0.0408
     15 C          -1.2134   -1.1314    0.9887 C.3     1  UNL11       0.0208
     16 C          -2.0939   -0.3905    0.0810 C.2     1  UNL11       0.1150
     17 N          -3.3948   -0.1926    0.3661 N.2     1  UNL11      -0.0076
     18 N          -4.2117    0.4593   -0.4466 N.am    1  UNL11      -0.0358
     19 C          -3.7922    0.9738   -1.6248 C.2     1  UNL11       0.4340
     20 O          -4.5607    1.6020   -2.4173 O.2     1  UNL11      -0.2120
     21 C          -2.4519    0.7832   -1.9428 C.2     1  UNL11       0.0740
     22 C          -1.6076    0.1037   -1.0922 C.2     1  UNL11      -0.0072
     23 C          -0.1775   -0.0827   -1.4498 C.3     1  UNL11      -0.0252
     24 C           0.3479    1.2422   -1.9875 C.3     1  UNL11      -0.0487
     25 C          -0.5763    1.9635   -2.8813 C.3     1  UNL11      -0.0484
     26 C          -1.8647    1.2934   -3.2066 C.3     1  UNL11      -0.0176
     27 C           1.0423   -1.1485    0.0263 C.ar    1  UNL11      -0.0505
     28 C           3.2724    0.4916   -0.9672 C.ar    1  UNL11      -0.0418
     29 H           2.2241    2.5577   -2.0592 H       1  UNL11       0.1882
     30 H           6.4901    1.2484   -1.4363 H       1  UNL11       0.0625
     31 H           6.6341   -1.1893   -1.2558 H       1  UNL11       0.0618
     32 H           4.6354   -2.5501   -0.8903 H       1  UNL11       0.0624
     33 H           2.8254   -3.4058   -1.6539 H       1  UNL11       0.0624
     34 H           0.7419   -4.6914   -1.2793 H       1  UNL11       0.0618
     35 H          -1.1685   -3.6666   -0.0435 H       1  UNL11       0.0620
     36 H          -1.7346   -1.9013    1.5820 H       1  UNL11       0.0379
     37 H          -0.7850   -0.4083    1.7132 H       1  UNL11       0.0379
     38 H          -5.2114    0.5878   -0.1871 H       1  UNL11       0.4828
     39 H          -0.0330   -0.8869   -2.1999 H       1  UNL11       0.0314
     40 H           0.4584   -0.2963   -0.5639 H       1  UNL11       0.0314
     41 H           1.3440    1.0254   -2.4325 H       1  UNL11       0.0268
     42 H           0.5614    1.8990   -1.0947 H       1  UNL11       0.0268
     43 H          -0.8309    2.9910   -2.4889 H       1  UNL11       0.0269
     44 H          -0.0463    2.1908   -3.8530 H       1  UNL11       0.0269
     45 H          -1.7563    0.4251   -3.8950 H       1  UNL11       0.0316
     46 H          -2.5345    2.0460   -3.6714 H       1  UNL11       0.0316
     47 H           1.1371   -0.1266    0.3993 H       1  UNL11       0.0626
     48 H           2.3070    0.9665   -0.8834 H       1  UNL11       0.0631
@<TRIPOS>BOND
     1     1     2    2
     2     2     3   am
     3     2     5    1
     4     3     4    1
     5     3    29    1
     6     5     6   ar
     7     6     7   ar
     8     6    30    1
     9     7     8   ar
    10     7    31    1
    11     8     9   ar
    12     8    32    1
    13     9    10    1
    14     9    28   ar
    15    10    11   ar
    16    11    12   ar
    17    11    33    1
    18    12    13   ar
    19    12    34    1
    20    13    14   ar
    21    13    35    1
    22    14    15    1
    23    14    27   ar
    24    15    16    1
    25    15    36    1
    26    15    37    1
    27    16    17    2
    28    17    18    1
    29    18    19   am
    30    18    38    1
    31    19    20    2
    32    19    21    1
    33    21    22    2
    34    22    23    1
    35    22    16    1
    36    23    24    1
    37    23    39    1
    38    23    40    1
    39    24    25    1
    40    24    41    1
    41    24    42    1
    42    25    26    1
    43    25    43    1
    44    25    44    1
    45    26    21    1
    46    26    45    1
    47    26    46    1
    48    27    10   ar
    49    27    47    1
    50    28     5   ar
    51    28    48    1
@<TRIPOS>MOLECULE
*****
 48 51 0 0 0
SMALL
GASTEIGER

@<TRIPOS>ATOM
      1 O           7.9525   -1.0040   -1.8567 O.2     1  UNL11      -0.2679
      2 C           6.9977   -1.4454   -1.1919 C.2     1  UNL11       0.2706
      3 N           7.1381   -2.6731   -0.4939 N.am    1  UNL11      -0.1481
      4 F           6.0990   -3.1706    0.2228 F       1  UNL11      -0.1090
      5 C           5.7453   -0.7096   -1.1306 C.ar    1  UNL11       0.0395
      6 C           5.6177    0.6458   -1.2294 C.ar    1  UNL11      -0.0495
      7 C           4.3538    1.2361   -1.1452 C.ar    1  UNL11      -0.0605
      8 C           3.2210    0.4881   -0.9640 C.ar    1  UNL11      -0.0540
      9 C           3.3254   -0.8772   -0.8617 C.ar    1  UNL11      -0.0172
     10 C           2.1192   -1.6859   -0.6550 C.ar    1  UNL11      -0.0176
     11 C           1.9911   -2.9747   -1.1215 C.ar    1  UNL11      -0.0540
     12 C           0.8134   -3.6866   -0.9033 C.ar    1  UNL11      -0.0609
     13 C          -0.2436   -3.1264   -0.2219 C.ar    1  UNL11      -0.0582
     14 C          -0.1224   -1.8466    0.2446 C.ar    1  UNL11      -0.0408
     15 C          -1.2134   -1.1314    0.9887 C.3     1  UNL11       0.0208
     16 C          -2.4040   -1.9715    1.1460 C.2     1  UNL11       0.1150
     17 N          -2.3153   -3.3128    1.2232 N.2     1  UNL11      -0.0076
     18 N          -3.3785   -4.0916    1.3490 N.am    1  UNL11      -0.0358
     19 C          -4.6328   -3.5897    1.4091 C.2     1  UNL11       0.4340
     20 O          -5.6645   -4.3207    1.5296 O.2     1  UNL11      -0.2120
     21 C          -4.7518   -2.2064    1.3318 C.2     1  UNL11       0.0740
     22 C          -3.6409   -1.4020    1.2009 C.2     1  UNL11      -0.0072
     23 C          -3.7914    0.0743    1.1263 C.3     1  UNL11      -0.0252
     24 C          -4.7953    0.4975    2.1910 C.3     1  UNL11      -0.0487
     25 C          -5.9682   -0.3849    2.3290 C.3     1  UNL11      -0.0484
     26 C          -6.0707   -1.5279    1.3814 C.3     1  UNL11      -0.0176
     27 C           1.0423   -1.1485    0.0263 C.ar    1  UNL11      -0.0505
     28 C           4.5739   -1.4443   -0.9466 C.ar    1  UNL11      -0.0418
     29 H           8.0499   -3.1666   -0.5484 H       1  UNL11       0.1882
     30 H           6.5008    1.2484   -1.3736 H       1  UNL11       0.0625
     31 H           4.2965    2.3046   -1.2272 H       1  UNL11       0.0618
     32 H           2.2738    0.9688   -0.9038 H       1  UNL11       0.0624
     33 H           2.8254   -3.4058   -1.6539 H       1  UNL11       0.0624
     34 H           0.7419   -4.6914   -1.2793 H       1  UNL11       0.0618
     35 H          -1.1685   -3.6666   -0.0435 H       1  UNL11       0.0620
     36 H          -0.7699   -0.8073    1.9451 H       1  UNL11       0.0379
     37 H          -1.5159   -0.2094    0.4504 H       1  UNL11       0.0379
     38 H          -3.2638   -5.1246    1.4034 H       1  UNL11       0.4828
     39 H          -4.1271    0.4126    0.1247 H       1  UNL11       0.0314
     40 H          -2.8566    0.6115    1.3947 H       1  UNL11       0.0314
     41 H          -5.0416    1.5620    1.9821 H       1  UNL11       0.0268
     42 H          -4.2449    0.5111    3.1763 H       1  UNL11       0.0268
     43 H          -6.0572   -0.8128    3.3699 H       1  UNL11       0.0269
     44 H          -6.9082    0.2343    2.2316 H       1  UNL11       0.0269
     45 H          -6.3261   -1.2252    0.3408 H       1  UNL11       0.0316
     46 H          -6.8504   -2.2194    1.7619 H       1  UNL11       0.0316
     47 H           1.1371   -0.1266    0.3993 H       1  UNL11       0.0626
     48 H           4.6462   -2.5180   -0.8657 H       1  UNL11       0.0631
@<TRIPOS>BOND
     1     1     2    2
     2     2     3   am
     3     2     5    1
     4     3     4    1
     5     3    29    1
     6     5     6   ar
     7     6     7   ar
     8     6    30    1
     9     7     8   ar
    10     7    31    1
    11     8     9   ar
    12     8    32    1
    13     9    10    1
    14     9    28   ar
    15    10    11   ar
    16    11    12   ar
    17    11    33    1
    18    12    13   ar
    19    12    34    1
    20    13    14   ar
    21    13    35    1
    22    14    15    1
    23    14    27   ar
    24    15    16    1
    25    15    36    1
    26    15    37    1
    27    16    17    2
    28    17    18    1
    29    18    19   am
    30    18    38    1
    31    19    20    2
    32    19    21    1
    33    21    22    2
    34    22    23    1
    35    22    16    1
    36    23    24    1
    37    23    39    1
    38    23    40    1
    39    24    25    1
    40    24    41    1
    41    24    42    1
    42    25    26    1
    43    25    43    1
    44    25    44    1
    45    26    21    1
    46    26    45    1
    47    26    46    1
    48    27    10   ar
    49    27    47    1
    50    28     5   ar
    51    28    48    1
@<TRIPOS>MOLECULE
*****
 48 51 0 0 0
SMALL
GASTEIGER

@<TRIPOS>ATOM
      1 O           6.1037    2.6413    0.7771 O.2     1  UNL11      -0.2679
      2 C           5.1120    1.8966    0.8795 C.2     1  UNL11       0.2706
      3 N           4.2491    2.0289    1.9984 N.am    1  UNL11      -0.1481
      4 F           4.5065    2.9620    2.9492 F       1  UNL11      -0.1090
      5 C           4.8386    0.8961   -0.1394 C.ar    1  UNL11       0.0395
      6 C           5.5936    0.6753   -1.2548 C.ar    1  UNL11      -0.0495
      7 C           5.2181   -0.3143   -2.1673 C.ar    1  UNL11      -0.0605
      8 C           4.1001   -1.0820   -1.9767 C.ar    1  UNL11      -0.0540
      9 C           3.3254   -0.8772   -0.8617 C.ar    1  UNL11      -0.0172
     10 C           2.1192   -1.6859   -0.6550 C.ar    1  UNL11      -0.0176
     11 C           1.9911   -2.9747   -1.1215 C.ar    1  UNL11      -0.0540
     12 C           0.8134   -3.6866   -0.9033 C.ar    1  UNL11      -0.0609
     13 C          -0.2436   -3.1264   -0.2219 C.ar    1  UNL11      -0.0582
     14 C          -0.1224   -1.8466    0.2446 C.ar    1  UNL11      -0.0408
     15 C          -1.2134   -1.1314    0.9887 C.3     1  UNL11       0.0208
     16 C          -0.7842   -0.7356    2.3330 C.2     1  UNL11       0.1150
     17 N          -0.2099    0.4596    2.5664 N.2     1  UNL11      -0.0076
     18 N           0.2000    0.8310    3.7692 N.am    1  UNL11      -0.0358
     19 C           0.0685    0.0305    4.8512 C.2     1  UNL11       0.4340
     20 O           0.4555    0.3693    6.0126 O.2     1  UNL11      -0.2120
     21 C          -0.5222   -1.2100    4.6369 C.2     1  UNL11       0.0740
     22 C          -0.9463   -1.5899    3.3823 C.2     1  UNL11      -0.0072
     23 C          -1.5805   -2.9180    3.1778 C.3     1  UNL11      -0.0252
     24 C          -2.5742   -3.1423    4.3103 C.3     1  UNL11      -0.0487
     25 C          -2.1101   -2.7132    5.6422 C.3     1  UNL11      -0.0484
     26 C          -0.7220   -2.1850    5.7377 C.3     1  UNL11      -0.0176
     27 C           1.0423   -1.1485    0.0263 C.ar    1  UNL11      -0.0505
     28 C           3.7063    0.0986    0.0273 C.ar    1  UNL11      -0.0418
     29 H           3.4296    1.3948    2.0632 H       1  UNL11       0.1882
     30 H           6.4779    1.2711   -1.4182 H       1  UNL11       0.0625
     31 H           5.8383   -0.4562   -3.0316 H       1  UNL11       0.0618
     32 H           3.8421   -1.8270   -2.6910 H       1  UNL11       0.0624
     33 H           2.8254   -3.4058   -1.6539 H       1  UNL11       0.0624
     34 H           0.7419   -4.6914   -1.2793 H       1  UNL11       0.0618
     35 H          -1.1685   -3.6666   -0.0435 H       1  UNL11       0.0620
     36 H          -1.5132   -0.2829    0.3511 H       1  UNL11       0.0379
     37 H          -2.1071   -1.7807    1.0940 H       1  UNL11       0.0379
     38 H           0.6406    1.7643    3.9042 H       1  UNL11       0.4828
     39 H          -0.8359   -3.7397    3.1508 H       1  UNL11       0.0314
     40 H          -2.1964   -2.9578    2.2539 H       1  UNL11       0.0314
     41 H          -2.8794   -4.2103    4.2508 H       1  UNL11       0.0268
     42 H          -3.5041   -2.5561    4.0540 H       1  UNL11       0.0268
     43 H          -2.7893   -1.9351    6.0980 H       1  UNL11       0.0269
     44 H          -2.2038   -3.5796    6.3615 H       1  UNL11       0.0269
     45 H           0.0629   -2.9676    5.6328 H       1  UNL11       0.0316
     46 H          -0.6118   -1.6877    6.7233 H       1  UNL11       0.0316
     47 H           1.1371   -0.1266    0.3993 H       1  UNL11       0.0626
     48 H           3.0917    0.2521    0.9010 H       1  UNL11       0.0631
@<TRIPOS>BOND
     1     1     2    2
     2     2     3   am
     3     2     5    1
     4     3     4    1
     5     3    29    1
     6     5     6   ar
     7     6     7   ar
     8     6    30    1
     9     7     8   ar
    10     7    31    1
    11     8     9   ar
    12     8    32    1
    13     9    10    1
    14     9    28   ar
    15    10    11   ar
    16    11    12   ar
    17    11    33    1
    18    12    13   ar
    19    12    34    1
    20    13    14   ar
    21    13    35    1
    22    14    15    1
    23    14    27   ar
    24    15    16    1
    25    15    36    1
    26    15    37    1
    27    16    17    2
    28    17    18    1
    29    18    19   am
    30    18    38    1
    31    19    20    2
    32    19    21    1
    33    21    22    2
    34    22    23    1
    35    22    16    1
    36    23    24    1
    37    23    39    1
    38    23    40    1
    39    24    25    1
    40    24    41    1
    41    24    42    1
    42    25    26    1
    43    25    43    1
    44    25    44    1
    45    26    21    1
    46    26    45    1
    47    26    46    1
    48    27    10   ar
    49    27    47    1
    50    28     5   ar
    51    28    48    1
@<TRIPOS>MOLECULE
*****
 48 51 0 0 0
SMALL
GASTEIGER

@<TRIPOS>ATOM
      1 O           5.1480    3.4921   -1.4709 O.2     1  UNL11      -0.2679
      2 C           4.1842    2.7295   -1.2767 C.2     1  UNL11       0.2706
      3 N           2.8774    3.2693   -1.1531 N.am    1  UNL11      -0.1481
      4 F           2.6834    4.6089   -1.2462 F       1  UNL11      -0.1090
      5 C           4.3940    1.2944   -1.1756 C.ar    1  UNL11       0.0395
      6 C           5.5992    0.6615   -1.2764 C.ar    1  UNL11      -0.0495
      7 C           5.6678   -0.7303   -1.1706 C.ar    1  UNL11      -0.0605
      8 C           4.5485   -1.4925   -0.9660 C.ar    1  UNL11      -0.0540
      9 C           3.3254   -0.8772   -0.8617 C.ar    1  UNL11      -0.0172
     10 C           2.1192   -1.6859   -0.6550 C.ar    1  UNL11      -0.0176
     11 C           1.9911   -2.9747   -1.1215 C.ar    1  UNL11      -0.0540
     12 C           0.8134   -3.6866   -0.9033 C.ar    1  UNL11      -0.0609
     13 C          -0.2436   -3.1264   -0.2219 C.ar    1  UNL11      -0.0582
     14 C          -0.1224   -1.8466    0.2446 C.ar    1  UNL11      -0.0408
     15 C          -1.2134   -1.1314    0.9887 C.3     1  UNL11       0.0208
     16 C          -0.8175    0.2315    1.3547 C.2     1  UNL11       0.1150
     17 N           0.0512    0.9381    0.6072 N.2     1  UNL11      -0.0076
     18 N           0.4350    2.1639    0.9278 N.am    1  UNL11      -0.0358
     19 C          -0.0224    2.7930    2.0340 C.2     1  UNL11       0.4340
     20 O           0.3342    3.9683    2.3578 O.2     1  UNL11      -0.2120
     21 C          -0.9215    2.0845    2.8235 C.2     1  UNL11       0.0740
     22 C          -1.3165    0.8090    2.4837 C.2     1  UNL11      -0.0072
     23 C          -2.2831    0.0729    3.3391 C.3     1  UNL11      -0.0252
     24 C          -3.4017    1.0353    3.7174 C.3     1  UNL11      -0.0487
     25 C          -2.9618    2.3999    4.0602 C.3     1  UNL11      -0.0484
     26 C          -1.4960    2.6573    4.0661 C.3     1  UNL11      -0.0176
     27 C           1.0423   -1.1485    0.0263 C.ar    1  UNL11      -0.0505
     28 C           3.2724    0.4916   -0.9672 C.ar    1  UNL11      -0.0418
     29 H           2.0895    2.6135   -0.9890 H       1  UNL11       0.1882
     30 H           6.4901    1.2484   -1.4363 H       1  UNL11       0.0625
     31 H           6.6341   -1.1893   -1.2558 H       1  UNL11       0.0618
     32 H           4.6354   -2.5501   -0.8903 H       1  UNL11       0.0624
     33 H           2.8254   -3.4058   -1.6539 H       1  UNL11       0.0624
     34 H           0.7419   -4.6914   -1.2793 H       1  UNL11       0.0618
     35 H          -1.1685   -3.6666   -0.0435 H       1  UNL11       0.0620
     36 H          -2.1050   -1.1753    0.3411 H       1  UNL11       0.0379
     37 H          -1.4719   -1.6732    1.9220 H       1  UNL11       0.0379
     38 H           1.1103    2.6735    0.3215 H       1  UNL11       0.4828
     39 H          -1.8069   -0.3413    4.2511 H       1  UNL11       0.0314
     40 H          -2.7945   -0.7488    2.7933 H       1  UNL11       0.0314
     41 H          -3.9938    0.5289    4.5114 H       1  UNL11       0.0268
     42 H          -4.0955    1.0998    2.8294 H       1  UNL11       0.0268
     43 H          -3.4287    3.1777    3.3882 H       1  UNL11       0.0269
     44 H          -3.3679    2.6727    5.0787 H       1  UNL11       0.0269
     45 H          -0.9627    2.1885    4.9236 H       1  UNL11       0.0316
     46 H          -1.3412    3.7555    4.0966 H       1  UNL11       0.0316
     47 H           1.1371   -0.1266    0.3993 H       1  UNL11       0.0626
     48 H           2.3070    0.9665   -0.8834 H       1  UNL11       0.0631
@<TRIPOS>BOND
     1     1     2    2
     2     2     3   am
     3     2     5    1
     4     3     4    1
     5     3    29    1
     6     5     6   ar
     7     6     7   ar
     8     6    30    1
     9     7     8   ar
    10     7    31    1
    11     8     9   ar
    12     8    32    1
    13     9    10    1
    14     9    28   ar
    15    10    11   ar
    16    11    12   ar
    17    11    33    1
    18    12    13   ar
    19    12    34    1
    20    13    14   ar
    21    13    35    1
    22    14    15    1
    23    14    27   ar
    24    15    16    1
    25    15    36    1
    26    15    37    1
    27    16    17    2
    28    17    18    1
    29    18    19   am
    30    18    38    1
    31    19    20    2
    32    19    21    1
    33    21    22    2
    34    22    23    1
    35    22    16    1
    36    23    24    1
    37    23    39    1
    38    23    40    1
    39    24    25    1
    40    24    41    1
    41    24    42    1
    42    25    26    1
    43    25    43    1
    44    25    44    1
    45    26    21    1
    46    26    45    1
    47    26    46    1
    48    27    10   ar
    49    27    47    1
    50    28     5   ar
    51    28    48    1
@<TRIPOS>MOLECULE
*****
 48 51 0 0 0
SMALL
GASTEIGER

@<TRIPOS>ATOM
      1 O           3.8459    2.8087    0.9858 O.2     1  UNL11      -0.2679
      2 C           4.5063    2.5650   -0.0403 C.2     1  UNL11       0.2706
      3 N           5.2184    3.6125   -0.6805 N.am    1  UNL11      -0.1481
      4 F           5.9305    3.3610   -1.8076 F       1  UNL11      -0.1090
      5 C           4.5481    1.2163   -0.5817 C.ar    1  UNL11       0.0395
      6 C           5.5946    0.6706   -1.2675 C.ar    1  UNL11      -0.0495
      7 C           5.5079   -0.6391   -1.7470 C.ar    1  UNL11      -0.0605
      8 C           4.3904   -1.4056   -1.5487 C.ar    1  UNL11      -0.0540
      9 C           3.3254   -0.8772   -0.8617 C.ar    1  UNL11      -0.0172
     10 C           2.1192   -1.6859   -0.6550 C.ar    1  UNL11      -0.0176
     11 C           1.9911   -2.9747   -1.1215 C.ar    1  UNL11      -0.0540
     12 C           0.8134   -3.6866   -0.9033 C.ar    1  UNL11      -0.0609
     13 C          -0.2436   -3.1264   -0.2219 C.ar    1  UNL11      -0.0582
     14 C          -0.1224   -1.8466    0.2446 C.ar    1  UNL11      -0.0408
     15 C          -1.2134   -1.1314    0.9887 C.3     1  UNL11       0.0208
     16 C          -0.6723   -0.1653    1.9489 C.2     1  UNL11       0.1150
     17 N           0.0937    0.8687    1.5530 N.2     1  UNL11      -0.0076
     18 N           0.6061    1.7435    2.4044 N.am    1  UNL11      -0.0358
     19 C           0.3931    1.6575    3.7371 C.2     1  UNL11       0.4340
     20 O           0.8760    2.4869    4.5690 O.2     1  UNL11      -0.2120
     21 C          -0.3956    0.5980    4.1720 C.2     1  UNL11       0.0740
     22 C          -0.9255   -0.3087    3.2802 C.2     1  UNL11      -0.0072
     23 C          -1.7705   -1.4297    3.7671 C.3     1  UNL11      -0.0252
     24 C          -2.7404   -0.8711    4.8004 C.3     1  UNL11      -0.0487
     25 C          -2.1601    0.1109    5.7344 C.3     1  UNL11      -0.0484
     26 C          -0.7030    0.3862    5.6083 C.3     1  UNL11      -0.0176
     27 C           1.0423   -1.1485    0.0263 C.ar    1  UNL11      -0.0505
     28 C           3.4241    0.4114   -0.3955 C.ar    1  UNL11      -0.0418
     29 H           5.1776    4.5611   -0.2606 H       1  UNL11       0.1882
     30 H           6.4823    1.2615   -1.4306 H       1  UNL11       0.0625
     31 H           6.3521   -1.0308   -2.2815 H       1  UNL11       0.0618
     32 H           4.3566   -2.3993   -1.9272 H       1  UNL11       0.0624
     33 H           2.8254   -3.4058   -1.6539 H       1  UNL11       0.0624
     34 H           0.7419   -4.6914   -1.2793 H       1  UNL11       0.0618
     35 H          -1.1685   -3.6666   -0.0435 H       1  UNL11       0.0620
     36 H          -1.8612   -0.6775    0.2201 H       1  UNL11       0.0379
     37 H          -1.8434   -1.8525    1.5495 H       1  UNL11       0.0379
     38 H           1.1947    2.5275    2.0546 H       1  UNL11       0.4828
     39 H          -1.1679   -2.2495    4.2086 H       1  UNL11       0.0314
     40 H          -2.4221   -1.8486    2.9705 H       1  UNL11       0.0314
     41 H          -3.2137   -1.7499    5.2913 H       1  UNL11       0.0268
     42 H          -3.5749   -0.3676    4.2311 H       1  UNL11       0.0268
     43 H          -2.6878    1.1077    5.6841 H       1  UNL11       0.0269
     44 H          -2.3611   -0.2255    6.7941 H       1  UNL11       0.0269
     45 H          -0.0574   -0.4478    5.9651 H       1  UNL11       0.0316
     46 H          -0.4751    1.3002    6.1944 H       1  UNL11       0.0316
     47 H           1.1371   -0.1266    0.3993 H       1  UNL11       0.0626
     48 H           2.5825    0.8181    0.1438 H       1  UNL11       0.0631
@<TRIPOS>BOND
     1     1     2    2
     2     2     3   am
     3     2     5    1
     4     3     4    1
     5     3    29    1
     6     5     6   ar
     7     6     7   ar
     8     6    30    1
     9     7     8   ar
    10     7    31    1
    11     8     9   ar
    12     8    32    1
    13     9    10    1
    14     9    28   ar
    15    10    11   ar
    16    11    12   ar
    17    11    33    1
    18    12    13   ar
    19    12    34    1
    20    13    14   ar
    21    13    35    1
    22    14    15    1
    23    14    27   ar
    24    15    16    1
    25    15    36    1
    26    15    37    1
    27    16    17    2
    28    17    18    1
    29    18    19   am
    30    18    38    1
    31    19    20    2
    32    19    21    1
    33    21    22    2
    34    22    23    1
    35    22    16    1
    36    23    24    1
    37    23    39    1
    38    23    40    1
    39    24    25    1
    40    24    41    1
    41    24    42    1
    42    25    26    1
    43    25    43    1
    44    25    44    1
    45    26    21    1
    46    26    45    1
    47    26    46    1
    48    27    10   ar
    49    27    47    1
    50    28     5   ar
    51    28    48    1
@<TRIPOS>MOLECULE
*****
 48 51 0 0 0
SMALL
GASTEIGER

@<TRIPOS>ATOM
      1 O           6.1037    2.6413    0.7771 O.2     1  UNL11      -0.2679
      2 C           5.1120    1.8966    0.8795 C.2     1  UNL11       0.2706
      3 N           4.2491    2.0289    1.9984 N.am    1  UNL11      -0.1481
      4 F           4.5065    2.9620    2.9492 F       1  UNL11      -0.1090
      5 C           4.8386    0.8961   -0.1394 C.ar    1  UNL11       0.0395
      6 C           5.5936    0.6753   -1.2548 C.ar    1  UNL11      -0.0495
      7 C           5.2181   -0.3143   -2.1673 C.ar    1  UNL11      -0.0605
      8 C           4.1001   -1.0820   -1.9767 C.ar    1  UNL11      -0.0540
      9 C           3.3254   -0.8772   -0.8617 C.ar    1  UNL11      -0.0172
     10 C           2.1192   -1.6859   -0.6550 C.ar    1  UNL11      -0.0176
     11 C           1.9911   -2.9747   -1.1215 C.ar    1  UNL11      -0.0540
     12 C           0.8134   -3.6866   -0.9033 C.ar    1  UNL11      -0.0609
     13 C          -0.2436   -3.1264   -0.2219 C.ar    1  UNL11      -0.0582
     14 C          -0.1224   -1.8466    0.2446 C.ar    1  UNL11      -0.0408
     15 C          -1.2134   -1.1314    0.9887 C.3     1  UNL11       0.0208
     16 C          -1.1116   -1.3418    2.4356 C.2     1  UNL11       0.1150
     17 N           0.0751   -1.5521    3.0358 N.2     1  UNL11      -0.0076
     18 N           0.1884   -1.7605    4.3382 N.am    1  UNL11      -0.0358
     19 C          -0.8863   -1.7759    5.1588 C.2     1  UNL11       0.4340
     20 O          -0.7975   -1.9741    6.4103 O.2     1  UNL11      -0.2120
     21 C          -2.1245   -1.5608    4.5634 C.2     1  UNL11       0.0740
     22 C          -2.2349   -1.3447    3.2072 C.2     1  UNL11      -0.0072
     23 C          -3.5678   -1.1110    2.5935 C.3     1  UNL11      -0.0252
     24 C          -4.3302   -0.1388    3.4846 C.3     1  UNL11      -0.0487
     25 C          -4.1856   -0.3746    4.9326 C.3     1  UNL11      -0.0484
     26 C          -3.3833   -1.5568    5.3493 C.3     1  UNL11      -0.0176
     27 C           1.0423   -1.1485    0.0263 C.ar    1  UNL11      -0.0505
     28 C           3.7063    0.0986    0.0273 C.ar    1  UNL11      -0.0418
     29 H           3.4296    1.3948    2.0632 H       1  UNL11       0.1882
     30 H           6.4779    1.2711   -1.4182 H       1  UNL11       0.0625
     31 H           5.8383   -0.4562   -3.0316 H       1  UNL11       0.0618
     32 H           3.8421   -1.8270   -2.6910 H       1  UNL11       0.0624
     33 H           2.8254   -3.4058   -1.6539 H       1  UNL11       0.0624
     34 H           0.7419   -4.6914   -1.2793 H       1  UNL11       0.0618
     35 H          -1.1685   -3.6666   -0.0435 H       1  UNL11       0.0620
     36 H          -1.1449   -0.0723    0.6887 H       1  UNL11       0.0379
     37 H          -2.2113   -1.4901    0.6618 H       1  UNL11       0.0379
     38 H           1.1262   -1.9205    4.7604 H       1  UNL11       0.4828
     39 H          -4.1436   -2.0507    2.4683 H       1  UNL11       0.0314
     40 H          -3.4997   -0.5953    1.6117 H       1  UNL11       0.0314
     41 H          -5.3812   -0.1401    3.1202 H       1  UNL11       0.0268
     42 H          -3.9404    0.8950    3.2538 H       1  UNL11       0.0268
     43 H          -3.7526    0.5206    5.4672 H       1  UNL11       0.0269
     44 H          -5.2124   -0.4695    5.3945 H       1  UNL11       0.0269
     45 H          -3.8914   -2.5301    5.1648 H       1  UNL11       0.0316
     46 H          -3.1658   -1.4585    6.4328 H       1  UNL11       0.0316
     47 H           1.1371   -0.1266    0.3993 H       1  UNL11       0.0626
     48 H           3.0917    0.2521    0.9010 H       1  UNL11       0.0631
@<TRIPOS>BOND
     1     1     2    2
     2     2     3   am
     3     2     5    1
     4     3     4    1
     5     3    29    1
     6     5     6   ar
     7     6     7   ar
     8     6    30    1
     9     7     8   ar
    10     7    31    1
    11     8     9   ar
    12     8    32    1
    13     9    10    1
    14     9    28   ar
    15    10    11   ar
    16    11    12   ar
    17    11    33    1
    18    12    13   ar
    19    12    34    1
    20    13    14   ar
    21    13    35    1
    22    14    15    1
    23    14    27   ar
    24    15    16    1
    25    15    36    1
    26    15    37    1
    27    16    17    2
    28    17    18    1
    29    18    19   am
    30    18    38    1
    31    19    20    2
    32    19    21    1
    33    21    22    2
    34    22    23    1
    35    22    16    1
    36    23    24    1
    37    23    39    1
    38    23    40    1
    39    24    25    1
    40    24    41    1
    41    24    42    1
    42    25    26    1
    43    25    43    1
    44    25    44    1
    45    26    21    1
    46    26    45    1
    47    26    46    1
    48    27    10   ar
    49    27    47    1
    50    28     5   ar
    51    28    48    1
@<TRIPOS>MOLECULE
*****
 48 51 0 0 0
SMALL
GASTEIGER

@<TRIPOS>ATOM
      1 O           6.1037    2.6413    0.7771 O.2     1  UNL11      -0.2679
      2 C           5.1120    1.8966    0.8795 C.2     1  UNL11       0.2706
      3 N           4.2491    2.0289    1.9984 N.am    1  UNL11      -0.1481
      4 F           3.1727    1.2131    2.1273 F       1  UNL11      -0.1090
      5 C           4.8386    0.8961   -0.1394 C.ar    1  UNL11       0.0395
      6 C           5.5936    0.6753   -1.2548 C.ar    1  UNL11      -0.0495
      7 C           5.2181   -0.3143   -2.1673 C.ar    1  UNL11      -0.0605
      8 C           4.1001   -1.0820   -1.9767 C.ar    1  UNL11      -0.0540
      9 C           3.3254   -0.8772   -0.8617 C.ar    1  UNL11      -0.0172
     10 C           2.1192   -1.6859   -0.6550 C.ar    1  UNL11      -0.0176
     11 C           1.9911   -2.9747   -1.1215 C.ar    1  UNL11      -0.0540
     12 C           0.8134   -3.6866   -0.9033 C.ar    1  UNL11      -0.0609
     13 C          -0.2436   -3.1264   -0.2219 C.ar    1  UNL11      -0.0582
     14 C          -0.1224   -1.8466    0.2446 C.ar    1  UNL11      -0.0408
     15 C          -1.2134   -1.1314    0.9887 C.3     1  UNL11       0.0208
     16 C          -1.5690   -1.8253    2.2297 C.2     1  UNL11       0.1150
     17 N          -0.9539   -2.9636    2.6022 N.2     1  UNL11      -0.0076
     18 N          -1.2703   -3.6154    3.7102 N.am    1  UNL11      -0.0358
     19 C          -2.2380   -3.1791    4.5481 C.2     1  UNL11       0.4340
     20 O          -2.5554   -3.7905    5.6152 O.2     1  UNL11      -0.2120
     21 C          -2.8887   -2.0047    4.1862 C.2     1  UNL11       0.0740
     22 C          -2.5543   -1.3317    3.0314 C.2     1  UNL11      -0.0072
     23 C          -3.2589   -0.0751    2.6677 C.3     1  UNL11      -0.0252
     24 C          -3.3731    0.7788    3.9240 C.3     1  UNL11      -0.0487
     25 C          -3.7138    0.0390    5.1528 C.3     1  UNL11      -0.0484
     26 C          -3.9721   -1.4201    5.0150 C.3     1  UNL11      -0.0176
     27 C           1.0423   -1.1485    0.0263 C.ar    1  UNL11      -0.0505
     28 C           3.7063    0.0986    0.0273 C.ar    1  UNL11      -0.0418
     29 H           4.4661    2.7618    2.7010 H       1  UNL11       0.1882
     30 H           6.4779    1.2711   -1.4182 H       1  UNL11       0.0625
     31 H           5.8383   -0.4562   -3.0316 H       1  UNL11       0.0618
     32 H           3.8421   -1.8270   -2.6910 H       1  UNL11       0.0624
     33 H           2.8254   -3.4058   -1.6539 H       1  UNL11       0.0624
     34 H           0.7419   -4.6914   -1.2793 H       1  UNL11       0.0618
     35 H          -1.1685   -3.6666   -0.0435 H       1  UNL11       0.0620
     36 H          -0.8527   -0.1009    1.1445 H       1  UNL11       0.0379
     37 H          -2.1288   -1.0566    0.3660 H       1  UNL11       0.0379
     38 H          -0.7697   -4.4934    3.9590 H       1  UNL11       0.4828
     39 H          -4.2641   -0.2657    2.2393 H       1  UNL11       0.0314
     40 H          -2.6758    0.5495    1.9575 H       1  UNL11       0.0314
     41 H          -4.0729    1.6070    3.6758 H       1  UNL11       0.0268
     42 H          -2.3714    1.2762    4.0767 H       1  UNL11       0.0268
     43 H          -2.9257    0.1585    5.9523 H       1  UNL11       0.0269
     44 H          -4.6245    0.5113    5.6263 H       1  UNL11       0.0269
     45 H          -4.9372   -1.6584    4.5134 H       1  UNL11       0.0316
     46 H          -3.9691   -1.8660    6.0309 H       1  UNL11       0.0316
     47 H           1.1371   -0.1266    0.3993 H       1  UNL11       0.0626
     48 H           3.0917    0.2521    0.9010 H       1  UNL11       0.0631
@<TRIPOS>BOND
     1     1     2    2
     2     2     3   am
     3     2     5    1
     4     3     4    1
     5     3    29    1
     6     5     6   ar
     7     6     7   ar
     8     6    30    1
     9     7     8   ar
    10     7    31    1
    11     8     9   ar
    12     8    32    1
    13     9    10    1
    14     9    28   ar
    15    10    11   ar
    16    11    12   ar
    17    11    33    1
    18    12    13   ar
    19    12    34    1
    20    13    14   ar
    21    13    35    1
    22    14    15    1
    23    14    27   ar
    24    15    16    1
    25    15    36    1
    26    15    37    1
    27    16    17    2
    28    17    18    1
    29    18    19   am
    30    18    38    1
    31    19    20    2
    32    19    21    1
    33    21    22    2
    34    22    23    1
    35    22    16    1
    36    23    24    1
    37    23    39    1
    38    23    40    1
    39    24    25    1
    40    24    41    1
    41    24    42    1
    42    25    26    1
    43    25    43    1
    44    25    44    1
    45    26    21    1
    46    26    45    1
    47    26    46    1
    48    27    10   ar
    49    27    47    1
    50    28     5   ar
    51    28    48    1
@<TRIPOS>MOLECULE
*****
 48 51 0 0 0
SMALL
GASTEIGER

@<TRIPOS>ATOM
      1 O           4.3637    2.0063    1.8676 O.2     1  UNL11      -0.2679
      2 C           5.1120    1.8966    0.8795 C.2     1  UNL11       0.2706
      3 N           6.2347    2.7554    0.7521 N.am    1  UNL11      -0.1481
      4 F           6.4877    3.6897    1.7029 F       1  UNL11      -0.1090
      5 C           4.8386    0.8961   -0.1394 C.ar    1  UNL11       0.0395
      6 C           5.5936    0.6753   -1.2548 C.ar    1  UNL11      -0.0495
      7 C           5.2181   -0.3143   -2.1673 C.ar    1  UNL11      -0.0605
      8 C           4.1001   -1.0820   -1.9767 C.ar    1  UNL11      -0.0540
      9 C           3.3254   -0.8772   -0.8617 C.ar    1  UNL11      -0.0172
     10 C           2.1192   -1.6859   -0.6550 C.ar    1  UNL11      -0.0176
     11 C           1.9911   -2.9747   -1.1215 C.ar    1  UNL11      -0.0540
     12 C           0.8134   -3.6866   -0.9033 C.ar    1  UNL11      -0.0609
     13 C          -0.2436   -3.1264   -0.2219 C.ar    1  UNL11      -0.0582
     14 C          -0.1224   -1.8466    0.2446 C.ar    1  UNL11      -0.0408
     15 C          -1.2134   -1.1314    0.9887 C.3     1  UNL11       0.0208
     16 C          -0.7842   -0.7356    2.3330 C.2     1  UNL11       0.1150
     17 N          -0.7691    0.5548    2.7170 N.2     1  UNL11      -0.0076
     18 N          -0.3700    0.9361    3.9203 N.am    1  UNL11      -0.0358
     19 C           0.0518    0.0501    4.8508 C.2     1  UNL11       0.4340
     20 O           0.4382    0.3968    6.0100 O.2     1  UNL11      -0.2120
     21 C           0.0456   -1.2899    4.4791 C.2     1  UNL11       0.0740
     22 C          -0.3711   -1.6794    3.2250 C.2     1  UNL11      -0.0072
     23 C          -0.3750   -3.1176    2.8517 C.3     1  UNL11      -0.0252
     24 C          -0.9592   -3.9032    4.0187 C.3     1  UNL11      -0.0487
     25 C          -0.5161   -3.4606    5.3533 C.3     1  UNL11      -0.0484
     26 C           0.4877   -2.3630    5.4039 C.3     1  UNL11      -0.0176
     27 C           1.0423   -1.1485    0.0263 C.ar    1  UNL11      -0.0505
     28 C           3.7063    0.0986    0.0273 C.ar    1  UNL11      -0.0418
     29 H           6.8431    2.6466   -0.0821 H       1  UNL11       0.1882
     30 H           6.4779    1.2711   -1.4182 H       1  UNL11       0.0625
     31 H           5.8383   -0.4562   -3.0316 H       1  UNL11       0.0618
     32 H           3.8421   -1.8270   -2.6910 H       1  UNL11       0.0624
     33 H           2.8254   -3.4058   -1.6539 H       1  UNL11       0.0624
     34 H           0.7419   -4.6914   -1.2793 H       1  UNL11       0.0618
     35 H          -1.1685   -3.6666   -0.0435 H       1  UNL11       0.0620
     36 H          -1.5132   -0.2829    0.3511 H       1  UNL11       0.0379
     37 H          -2.1071   -1.7807    1.0940 H       1  UNL11       0.0379
     38 H          -0.3731    1.9454    4.1745 H       1  UNL11       0.4828
     39 H           0.6402   -3.4911    2.6062 H       1  UNL11       0.0314
     40 H          -1.0555   -3.3346    2.0006 H       1  UNL11       0.0314
     41 H          -0.7644   -4.9766    3.8011 H       1  UNL11       0.0268
     42 H          -2.0810   -3.7909    3.9632 H       1  UNL11       0.0268
     43 H          -1.3821   -3.1433    6.0044 H       1  UNL11       0.0269
     44 H          -0.0932   -4.3462    5.9133 H       1  UNL11       0.0269
     45 H           1.5080   -2.6746    5.0851 H       1  UNL11       0.0316
     46 H           0.5306   -1.9858    6.4463 H       1  UNL11       0.0316
     47 H           1.1371   -0.1266    0.3993 H       1  UNL11       0.0626
     48 H           3.0917    0.2521    0.9010 H       1  UNL11       0.0631
@<TRIPOS>BOND
     1     1     2    2
     2     2     3   am
     3     2     5    1
     4     3     4    1
     5     3    29    1
     6     5     6   ar
     7     6     7   ar
     8     6    30    1
     9     7     8   ar
    10     7    31    1
    11     8     9   ar
    12     8    32    1
    13     9    10    1
    14     9    28   ar
    15    10    11   ar
    16    11    12   ar
    17    11    33    1
    18    12    13   ar
    19    12    34    1
    20    13    14   ar
    21    13    35    1
    22    14    15    1
    23    14    27   ar
    24    15    16    1
    25    15    36    1
    26    15    37    1
    27    16    17    2
    28    17    18    1
    29    18    19   am
    30    18    38    1
    31    19    20    2
    32    19    21    1
    33    21    22    2
    34    22    23    1
    35    22    16    1
    36    23    24    1
    37    23    39    1
    38    23    40    1
    39    24    25    1
    40    24    41    1
    41    24    42    1
    42    25    26    1
    43    25    43    1
    44    25    44    1
    45    26    21    1
    46    26    45    1
    47    26    46    1
    48    27    10   ar
    49    27    47    1
    50    28     5   ar
    51    28    48    1
@<TRIPOS>MOLECULE
*****
 48 51 0 0 0
SMALL
GASTEIGER

@<TRIPOS>ATOM
      1 O           6.5163   -2.4290   -2.9237 O.2     1  UNL11      -0.2679
      2 C           6.6606   -1.2732   -2.4858 C.2     1  UNL11       0.2706
      3 N           7.8839   -0.5882   -2.7058 N.am    1  UNL11      -0.1481
      4 F           8.0572    0.6671   -2.2209 F       1  UNL11      -0.1090
      5 C           5.5840   -0.6279   -1.7521 C.ar    1  UNL11       0.0395
      6 C           5.6226    0.6362   -1.2387 C.ar    1  UNL11      -0.0495
      7 C           4.5212    1.1407   -0.5420 C.ar    1  UNL11      -0.0605
      8 C           3.3864    0.3972   -0.3542 C.ar    1  UNL11      -0.0540
      9 C           3.3254   -0.8772   -0.8617 C.ar    1  UNL11      -0.0172
     10 C           2.1192   -1.6859   -0.6550 C.ar    1  UNL11      -0.0176
     11 C           1.9911   -2.9747   -1.1215 C.ar    1  UNL11      -0.0540
     12 C           0.8134   -3.6866   -0.9033 C.ar    1  UNL11      -0.0609
     13 C          -0.2436   -3.1264   -0.2219 C.ar    1  UNL11      -0.0582
     14 C          -0.1224   -1.8466    0.2446 C.ar    1  UNL11      -0.0408
     15 C          -1.2134   -1.1314    0.9887 C.3     1  UNL11       0.0208
     16 C          -0.6723   -0.1653    1.9489 C.2     1  UNL11       0.1150
     17 N          -1.3226    0.1357    3.0887 N.2     1  UNL11      -0.0076
     18 N          -0.8605    1.0170    3.9619 N.am    1  UNL11      -0.0358
     19 C           0.3031    1.6780    3.7671 C.2     1  UNL11       0.4340
     20 O           0.7624    2.5266    4.5931 O.2     1  UNL11      -0.2120
     21 C           0.9947    1.3848    2.5969 C.2     1  UNL11       0.0740
     22 C           0.5076    0.4665    1.6926 C.2     1  UNL11      -0.0072
     23 C           1.2668    0.1644    0.4515 C.3     1  UNL11      -0.0252
     24 C           2.7355    0.0123    0.8257 C.3     1  UNL11      -0.0487
     25 C           3.2341    0.9922    1.8079 C.3     1  UNL11      -0.0484
     26 C           2.2816    2.0426    2.2598 C.3     1  UNL11      -0.0176
     27 C           1.0423   -1.1485    0.0263 C.ar    1  UNL11      -0.0505
     28 C           4.4151   -1.3604   -1.5448 C.ar    1  UNL11      -0.0418
     29 H           8.6273   -1.0730   -3.2445 H       1  UNL11       0.1882
     30 H           6.5090    1.2347   -1.3795 H       1  UNL11       0.0625
     31 H           4.5917    2.1387   -0.1538 H       1  UNL11       0.0618
     32 H           2.5656    0.8110    0.1813 H       1  UNL11       0.0624
     33 H           2.8254   -3.4058   -1.6539 H       1  UNL11       0.0624
     34 H           0.7419   -4.6914   -1.2793 H       1  UNL11       0.0618
     35 H          -1.1685   -3.6666   -0.0435 H       1  UNL11       0.0620
     36 H          -1.8612   -0.6775    0.2201 H       1  UNL11       0.0379
     37 H          -1.8434   -1.8525    1.5495 H       1  UNL11       0.0379
     38 H          -1.3972    1.2206    4.8301 H       1  UNL11       0.4828
     39 H           1.1455    0.9538   -0.3182 H       1  UNL11       0.0314
     40 H           0.9880   -0.8165    0.0103 H       1  UNL11       0.0314
     41 H           3.3010   -0.0086   -0.1320 H       1  UNL11       0.0268
     42 H           2.8592   -1.0209    1.2628 H       1  UNL11       0.0268
     43 H           3.6380    0.4939    2.7370 H       1  UNL11       0.0269
     44 H           4.1459    1.5074    1.3837 H       1  UNL11       0.0269
     45 H           2.0660    2.8140    1.4865 H       1  UNL11       0.0316
     46 H           2.7138    2.5346    3.1553 H       1  UNL11       0.0316
     47 H           1.1371   -0.1266    0.3993 H       1  UNL11       0.0626
     48 H           4.3579   -2.3627   -1.9406 H       1  UNL11       0.0631
@<TRIPOS>BOND
     1     1     2    2
     2     2     3   am
     3     2     5    1
     4     3     4    1
     5     3    29    1
     6     5     6   ar
     7     6     7   ar
     8     6    30    1
     9     7     8   ar
    10     7    31    1
    11     8     9   ar
    12     8    32    1
    13     9    10    1
    14     9    28   ar
    15    10    11   ar
    16    11    12   ar
    17    11    33    1
    18    12    13   ar
    19    12    34    1
    20    13    14   ar
    21    13    35    1
    22    14    15    1
    23    14    27   ar
    24    15    16    1
    25    15    36    1
    26    15    37    1
    27    16    17    2
    28    17    18    1
    29    18    19   am
    30    18    38    1
    31    19    20    2
    32    19    21    1
    33    21    22    2
    34    22    23    1
    35    22    16    1
    36    23    24    1
    37    23    39    1
    38    23    40    1
    39    24    25    1
    40    24    41    1
    41    24    42    1
    42    25    26    1
    43    25    43    1
    44    25    44    1
    45    26    21    1
    46    26    45    1
    47    26    46    1
    48    27    10   ar
    49    27    47    1
    50    28     5   ar
    51    28    48    1
@<TRIPOS>MOLECULE
*****
 48 51 0 0 0
SMALL
GASTEIGER

@<TRIPOS>ATOM
      1 O           6.5163   -2.4290   -2.9237 O.2     1  UNL11      -0.2679
      2 C           6.6606   -1.2732   -2.4858 C.2     1  UNL11       0.2706
      3 N           7.8839   -0.5882   -2.7058 N.am    1  UNL11      -0.1481
      4 F           8.8882   -1.1924   -3.3893 F       1  UNL11      -0.1090
      5 C           5.5840   -0.6279   -1.7521 C.ar    1  UNL11       0.0395
      6 C           5.6226    0.6362   -1.2387 C.ar    1  UNL11      -0.0495
      7 C           4.5212    1.1407   -0.5420 C.ar    1  UNL11      -0.0605
      8 C           3.3864    0.3972   -0.3542 C.ar    1  UNL11      -0.0540
      9 C           3.3254   -0.8772   -0.8617 C.ar    1  UNL11      -0.0172
     10 C           2.1192   -1.6859   -0.6550 C.ar    1  UNL11      -0.0176
     11 C           1.9911   -2.9747   -1.1215 C.ar    1  UNL11      -0.0540
     12 C           0.8134   -3.6866   -0.9033 C.ar    1  UNL11      -0.0609
     13 C          -0.2436   -3.1264   -0.2219 C.ar    1  UNL11      -0.0582
     14 C          -0.1224   -1.8466    0.2446 C.ar    1  UNL11      -0.0408
     15 C          -1.2134   -1.1314    0.9887 C.3     1  UNL11       0.0208
     16 C          -0.6723   -0.1653    1.9489 C.2     1  UNL11       0.1150
     17 N          -0.9606    1.1473    1.8668 N.2     1  UNL11      -0.0076
     18 N          -0.4700    2.0393    2.7132 N.am    1  UNL11      -0.0358
     19 C           0.3583    1.6904    3.7236 C.2     1  UNL11       0.4340
     20 O           0.8386    2.5315    4.5452 O.2     1  UNL11      -0.2120
     21 C           0.6715    0.3398    3.8305 C.2     1  UNL11       0.0740
     22 C           0.1574   -0.5830    2.9460 C.2     1  UNL11      -0.0072
     23 C           0.5010   -2.0221    3.0831 C.3     1  UNL11      -0.0252
     24 C           0.4009   -2.3895    4.5580 C.3     1  UNL11      -0.0487
     25 C           0.9396   -1.3823    5.4901 C.3     1  UNL11      -0.0484
     26 C           1.5722   -0.1755    4.8914 C.3     1  UNL11      -0.0176
     27 C           1.0423   -1.1485    0.0263 C.ar    1  UNL11      -0.0505
     28 C           4.4151   -1.3604   -1.5448 C.ar    1  UNL11      -0.0418
     29 H           7.9817    0.3741   -2.3289 H       1  UNL11       0.1882
     30 H           6.5090    1.2347   -1.3795 H       1  UNL11       0.0625
     31 H           4.5917    2.1387   -0.1538 H       1  UNL11       0.0618
     32 H           2.5656    0.8110    0.1813 H       1  UNL11       0.0624
     33 H           2.8254   -3.4058   -1.6539 H       1  UNL11       0.0624
     34 H           0.7419   -4.6914   -1.2793 H       1  UNL11       0.0618
     35 H          -1.1685   -3.6666   -0.0435 H       1  UNL11       0.0620
     36 H          -1.8612   -0.6775    0.2201 H       1  UNL11       0.0379
     37 H          -1.8434   -1.8525    1.5495 H       1  UNL11       0.0379
     38 H          -0.7181    3.0451    2.6117 H       1  UNL11       0.4828
     39 H           1.5156   -2.2507    2.6976 H       1  UNL11       0.0314
     40 H          -0.2348   -2.6851    2.5796 H       1  UNL11       0.0314
     41 H           0.8543   -3.4001    4.6593 H       1  UNL11       0.0268
     42 H          -0.6946   -2.5343    4.7882 H       1  UNL11       0.0268
     43 H           0.1577   -1.0161    6.2175 H       1  UNL11       0.0269
     44 H           1.6991   -1.8752    6.1661 H       1  UNL11       0.0269
     45 H           2.5598   -0.3761    4.4181 H       1  UNL11       0.0316
     46 H           1.6993    0.5789    5.6949 H       1  UNL11       0.0316
     47 H           1.1371   -0.1266    0.3993 H       1  UNL11       0.0626
     48 H           4.3579   -2.3627   -1.9406 H       1  UNL11       0.0631
@<TRIPOS>BOND
     1     1     2    2
     2     2     3   am
     3     2     5    1
     4     3     4    1
     5     3    29    1
     6     5     6   ar
     7     6     7   ar
     8     6    30    1
     9     7     8   ar
    10     7    31    1
    11     8     9   ar
    12     8    32    1
    13     9    10    1
    14     9    28   ar
    15    10    11   ar
    16    11    12   ar
    17    11    33    1
    18    12    13   ar
    19    12    34    1
    20    13    14   ar
    21    13    35    1
    22    14    15    1
    23    14    27   ar
    24    15    16    1
    25    15    36    1
    26    15    37    1
    27    16    17    2
    28    17    18    1
    29    18    19   am
    30    18    38    1
    31    19    20    2
    32    19    21    1
    33    21    22    2
    34    22    23    1
    35    22    16    1
    36    23    24    1
    37    23    39    1
    38    23    40    1
    39    24    25    1
    40    24    41    1
    41    24    42    1
    42    25    26    1
    43    25    43    1
    44    25    44    1
    45    26    21    1
    46    26    45    1
    47    26    46    1
    48    27    10   ar
    49    27    47    1
    50    28     5   ar
    51    28    48    1
