@<TRIPOS>MOLECULE
*****
 40 43 0 0 0
SMALL
GASTEIGER

@<TRIPOS>ATOM
      1 O           2.1778    0.3521    0.0198 O.2     1  UNL11      -0.2702
      2 C           1.0650    0.0856    0.6898 C.2     1  UNL11       0.2450
      3 N           0.0185   -0.3897   -0.1984 N.am    1  UNL11      -0.3055
      4 C          -1.1740   -0.6558    0.5335 C.3     1  UNL11       0.0605
      5 C          -1.4052   -1.0712    1.8816 C.2     1  UNL11       0.1319
      6 N          -0.9501   -2.1953    2.4334 N.2     1  UNL11      -0.0060
      7 N          -0.8728   -2.3446    3.7445 N.am    1  UNL11      -0.0355
      8 C          -1.2442   -1.3871    4.6138 C.2     1  UNL11       0.4383
      9 O          -1.1386   -1.5687    5.8440 O.2     1  UNL11      -0.2116
     10 C          -1.7419   -0.1868    4.1493 C.ar    1  UNL11       0.1005
     11 C          -2.2199    0.7806    5.0279 C.ar    1  UNL11      -0.0441
     12 C          -2.7937    1.9104    4.4677 C.ar    1  UNL11      -0.0608
     13 C          -2.8595    2.0330    3.0959 C.ar    1  UNL11      -0.0611
     14 C          -2.3778    1.0753    2.2350 C.ar    1  UNL11      -0.0517
     15 C          -1.8134   -0.0494    2.7905 C.ar    1  UNL11       0.0205
     16 C           1.1408    0.2834    2.0778 C.ar    1  UNL11       0.0444
     17 C           2.4975    0.0613    2.5686 C.ar    1  UNL11      -0.0490
     18 C           2.8545    0.2075    3.8544 C.ar    1  UNL11      -0.0605
     19 C           1.9079    0.5956    4.7697 C.ar    1  UNL11      -0.0540
     20 C           0.6292    0.8151    4.3387 C.ar    1  UNL11      -0.0172
     21 C          -0.2606    1.2403    5.2846 C.ar    1  UNL11      -0.0540
     22 C          -1.5474    1.5200    4.9445 C.ar    1  UNL11      -0.0612
     23 C          -1.9093    1.3526    3.6041 C.ar    1  UNL11      -0.0611
     24 C          -1.0893    0.9322    2.6122 C.ar    1  UNL11      -0.0533
     25 C           0.2387    0.6573    3.0079 C.ar    1  UNL11      -0.0058
     26 H           0.2575   -0.4347   -1.1816 H       1  UNL11       0.1494
     27 H          -1.6878    0.4276    0.5149 H       1  UNL11       0.0529
     28 H          -1.9496   -1.1643   -0.1850 H       1  UNL11       0.0529
     29 H          -0.4996   -3.2085    4.1642 H       1  UNL11       0.4829
     30 H          -2.1473    0.6814    6.0833 H       1  UNL11       0.0627
     31 H          -3.2233    2.7245    5.0786 H       1  UNL11       0.0618
     32 H          -3.3207    2.9100    2.6105 H       1  UNL11       0.0618
     33 H          -2.4423    1.1541    1.1775 H       1  UNL11       0.0624
     34 H           3.2036   -0.2480    1.8363 H       1  UNL11       0.0625
     35 H           3.8758    0.0273    4.2107 H       1  UNL11       0.0618
     36 H           2.1971    0.7080    5.8051 H       1  UNL11       0.0624
     37 H           0.0627    1.3661    6.3287 H       1  UNL11       0.0624
     38 H          -2.2489    1.8625    5.6424 H       1  UNL11       0.0618
     39 H          -2.9452    1.5678    3.3427 H       1  UNL11       0.0618
     40 H          -1.3141    0.7886    1.5679 H       1  UNL11       0.0624
@<TRIPOS>BOND
     1     1     2    2
     2     2     3   am
     3     2    16    1
     4     3     4    1
     5     3    26    1
     6     4     5    1
     7     4    27    1
     8     4    28    1
     9     5     6    2
    10     6     7    1
    11     7     8   am
    12     7    29    1
    13     8     9    2
    14     8    10    1
    15    10    11   ar
    16    11    12   ar
    17    11    30    1
    18    12    13   ar
    19    12    31    1
    20    13    14   ar
    21    13    32    1
    22    14    15   ar
    23    14    33    1
    24    15     5    1
    25    15    10   ar
    26    16    17   ar
    27    17    18   ar
    28    17    34    1
    29    18    19   ar
    30    18    35    1
    31    19    20   ar
    32    19    36    1
    33    20    21   ar
    34    21    22   ar
    35    21    37    1
    36    22    23   ar
    37    22    38    1
    38    23    24   ar
    39    23    39    1
    40    24    25   ar
    41    24    40    1
    42    25    16   ar
    43    25    20   ar
@<TRIPOS>MOLECULE
*****
 40 43 0 0 0
SMALL
GASTEIGER

@<TRIPOS>ATOM
      1 O           2.1778    0.3521    0.0198 O.2     1  UNL11      -0.2702
      2 C           1.0650    0.0856    0.6898 C.2     1  UNL11       0.2450
      3 N           0.0185   -0.3897   -0.1984 N.am    1  UNL11      -0.3055
      4 C          -1.1740   -0.6558    0.5335 C.3     1  UNL11       0.0605
      5 C          -1.4616   -1.5400    1.6193 C.2     1  UNL11       0.1319
      6 N          -1.9087   -1.1717    2.8191 N.2     1  UNL11      -0.0060
      7 N          -2.5011   -2.0280    3.6333 N.am    1  UNL11      -0.0355
      8 C          -2.6952   -3.3221    3.3201 C.2     1  UNL11       0.4383
      9 O          -3.2735   -4.0897    4.1162 O.2     1  UNL11      -0.2116
     10 C          -2.2595   -3.8126    2.1061 C.ar    1  UNL11       0.1005
     11 C          -2.3640   -5.1657    1.7990 C.ar    1  UNL11      -0.0441
     12 C          -1.8083   -5.5833    0.6005 C.ar    1  UNL11      -0.0608
     13 C          -1.1964   -4.6634   -0.2245 C.ar    1  UNL11      -0.0611
     14 C          -1.1042   -3.3267    0.0835 C.ar    1  UNL11      -0.0517
     15 C          -1.6503   -2.9125    1.2761 C.ar    1  UNL11       0.0205
     16 C           1.1408    0.2834    2.0778 C.ar    1  UNL11       0.0444
     17 C           2.0958    1.3367    2.4087 C.ar    1  UNL11      -0.0490
     18 C           2.3441    1.7455    3.6630 C.ar    1  UNL11      -0.0605
     19 C           1.6658    1.1593    4.7025 C.ar    1  UNL11      -0.0540
     20 C           0.7618    0.1725    4.4230 C.ar    1  UNL11      -0.0172
     21 C           0.0857   -0.3452    5.4917 C.ar    1  UNL11      -0.0540
     22 C          -0.8600   -1.3056    5.3097 C.ar    1  UNL11      -0.0612
     23 C          -1.1011   -1.7309    3.9994 C.ar    1  UNL11      -0.0611
     24 C          -0.4714   -1.2711    2.8925 C.ar    1  UNL11      -0.0533
     25 C           0.4995   -0.2719    3.1261 C.ar    1  UNL11      -0.0058
     26 H           0.2575   -0.4347   -1.1816 H       1  UNL11       0.1494
     27 H          -1.3708    0.4187    1.0282 H       1  UNL11       0.0529
     28 H          -2.0848   -0.6122   -0.2046 H       1  UNL11       0.0529
     29 H          -2.8638   -1.7314    4.5510 H       1  UNL11       0.4829
     30 H          -2.8536   -5.8611    2.4359 H       1  UNL11       0.0627
     31 H          -1.8182   -6.6394    0.2763 H       1  UNL11       0.0618
     32 H          -0.7299   -4.9573   -1.1803 H       1  UNL11       0.0618
     33 H          -0.6174   -2.6157   -0.5380 H       1  UNL11       0.0624
     34 H           2.6112    1.7626    1.5821 H       1  UNL11       0.0625
     35 H           3.0721    2.5314    3.8977 H       1  UNL11       0.0618
     36 H           1.8713    1.4872    5.7118 H       1  UNL11       0.0624
     37 H           0.2985    0.0189    6.5079 H       1  UNL11       0.0624
     38 H          -1.4063   -1.7110    6.1058 H       1  UNL11       0.0618
     39 H          -1.8521   -2.5089    3.8640 H       1  UNL11       0.0618
     40 H          -0.6188   -1.5605    1.8647 H       1  UNL11       0.0624
@<TRIPOS>BOND
     1     1     2    2
     2     2     3   am
     3     2    16    1
     4     3     4    1
     5     3    26    1
     6     4     5    1
     7     4    27    1
     8     4    28    1
     9     5     6    2
    10     6     7    1
    11     7     8   am
    12     7    29    1
    13     8     9    2
    14     8    10    1
    15    10    11   ar
    16    11    12   ar
    17    11    30    1
    18    12    13   ar
    19    12    31    1
    20    13    14   ar
    21    13    32    1
    22    14    15   ar
    23    14    33    1
    24    15     5    1
    25    15    10   ar
    26    16    17   ar
    27    17    18   ar
    28    17    34    1
    29    18    19   ar
    30    18    35    1
    31    19    20   ar
    32    19    36    1
    33    20    21   ar
    34    21    22   ar
    35    21    37    1
    36    22    23   ar
    37    22    38    1
    38    23    24   ar
    39    23    39    1
    40    24    25   ar
    41    24    40    1
    42    25    16   ar
    43    25    20   ar
@<TRIPOS>MOLECULE
*****
 40 43 0 0 0
SMALL
GASTEIGER

@<TRIPOS>ATOM
      1 O           2.1778    0.3521    0.0198 O.2     1  UNL11      -0.2702
      2 C           1.0650    0.0856    0.6898 C.2     1  UNL11       0.2450
      3 N           0.0185   -0.3897   -0.1984 N.am    1  UNL11      -0.3055
      4 C          -1.1740   -0.6558    0.5335 C.3     1  UNL11       0.0605
      5 C          -1.9463   -1.8443    0.7190 C.2     1  UNL11       0.1319
      6 N          -1.5078   -2.9727    1.2754 N.2     1  UNL11      -0.0060
      7 N          -2.3401   -3.8815    1.7533 N.am    1  UNL11      -0.0355
      8 C          -3.6778   -3.7419    1.7146 C.2     1  UNL11       0.4383
      9 O          -4.4235   -4.6211    2.1927 O.2     1  UNL11      -0.2116
     10 C          -4.2394   -2.6158    1.1484 C.ar    1  UNL11       0.1005
     11 C          -5.6187   -2.4923    1.0119 C.ar    1  UNL11      -0.0441
     12 C          -6.0865   -1.3744    0.3404 C.ar    1  UNL11      -0.0608
     13 C          -5.1902   -0.4468   -0.1467 C.ar    1  UNL11      -0.0611
     14 C          -3.8289   -0.5731   -0.0008 C.ar    1  UNL11      -0.0517
     15 C          -3.3634   -1.6858    0.6605 C.ar    1  UNL11       0.0205
     16 C           1.1408    0.2834    2.0778 C.ar    1  UNL11       0.0444
     17 C          -0.1554    0.6703    2.6266 C.ar    1  UNL11      -0.0490
     18 C          -0.3704    0.8969    3.9322 C.ar    1  UNL11      -0.0605
     19 C           0.6711    0.7527    4.8148 C.ar    1  UNL11      -0.0540
     20 C           1.8962    0.3872    4.3305 C.ar    1  UNL11      -0.0172
     21 C           2.8845    0.2174    5.2586 C.ar    1  UNL11      -0.0540
     22 C           4.1277   -0.1810    4.8770 C.ar    1  UNL11      -0.0612
     23 C           4.3417   -0.4026    3.5129 C.ar    1  UNL11      -0.0611
     24 C           3.4176   -0.2521    2.5349 C.ar    1  UNL11      -0.0533
     25 C           2.1395    0.1582    2.9753 C.ar    1  UNL11      -0.0058
     26 H           0.2575   -0.4347   -1.1816 H       1  UNL11       0.1494
     27 H          -0.8014   -0.4239    1.6495 H       1  UNL11       0.0529
     28 H          -1.8808    0.2769    0.4511 H       1  UNL11       0.0529
     29 H          -1.9937   -4.7421    2.2019 H       1  UNL11       0.4829
     30 H          -6.2992   -3.2060    1.4073 H       1  UNL11       0.0627
     31 H          -7.1617   -1.1960    0.1593 H       1  UNL11       0.0618
     32 H          -5.5211    0.4494   -0.6988 H       1  UNL11       0.0618
     33 H          -3.1317    0.1276   -0.3901 H       1  UNL11       0.0624
     34 H          -0.9376    0.7831    1.9155 H       1  UNL11       0.0625
     35 H          -1.3475    1.1970    4.3292 H       1  UNL11       0.0618
     36 H           0.4962    0.9405    5.8648 H       1  UNL11       0.0624
     37 H           2.6769    0.3956    6.3243 H       1  UNL11       0.0624
     38 H           4.9018   -0.3351    5.5652 H       1  UNL11       0.0618
     39 H           5.3438   -0.7102    3.2148 H       1  UNL11       0.0618
     40 H           3.5274   -0.4106    1.4744 H       1  UNL11       0.0624
@<TRIPOS>BOND
     1     1     2    2
     2     2     3   am
     3     2    16    1
     4     3     4    1
     5     3    26    1
     6     4     5    1
     7     4    27    1
     8     4    28    1
     9     5     6    2
    10     6     7    1
    11     7     8   am
    12     7    29    1
    13     8     9    2
    14     8    10    1
    15    10    11   ar
    16    11    12   ar
    17    11    30    1
    18    12    13   ar
    19    12    31    1
    20    13    14   ar
    21    13    32    1
    22    14    15   ar
    23    14    33    1
    24    15     5    1
    25    15    10   ar
    26    16    17   ar
    27    17    18   ar
    28    17    34    1
    29    18    19   ar
    30    18    35    1
    31    19    20   ar
    32    19    36    1
    33    20    21   ar
    34    21    22   ar
    35    21    37    1
    36    22    23   ar
    37    22    38    1
    38    23    24   ar
    39    23    39    1
    40    24    25   ar
    41    24    40    1
    42    25    16   ar
    43    25    20   ar
@<TRIPOS>MOLECULE
*****
 40 43 0 0 0
SMALL
GASTEIGER

@<TRIPOS>ATOM
      1 O           2.1778    0.3521    0.0198 O.2     1  UNL11      -0.2702
      2 C           1.0650    0.0856    0.6898 C.2     1  UNL11       0.2450
      3 N           0.0185   -0.3897   -0.1984 N.am    1  UNL11      -0.3055
      4 C          -1.1740   -0.6558    0.5335 C.3     1  UNL11       0.0605
      5 C          -2.4586   -1.1431    0.1390 C.2     1  UNL11       0.1319
      6 N          -3.6122   -0.4937    0.2902 N.2     1  UNL11      -0.0060
      7 N          -4.6862   -0.8116   -0.4114 N.am    1  UNL11      -0.0355
      8 C          -4.7002   -1.8039   -1.3201 C.2     1  UNL11       0.4383
      9 O          -5.7353   -2.0574   -1.9697 O.2     1  UNL11      -0.2116
     10 C          -3.5616   -2.5495   -1.5473 C.ar    1  UNL11       0.1005
     11 C          -3.5777   -3.6397   -2.4118 C.ar    1  UNL11      -0.0441
     12 C          -2.4162   -4.3898   -2.4997 C.ar    1  UNL11      -0.0608
     13 C          -1.3145   -4.0309   -1.7524 C.ar    1  UNL11      -0.0611
     14 C          -1.3050   -2.9474   -0.9060 C.ar    1  UNL11      -0.0517
     15 C          -2.4598   -2.2058   -0.8137 C.ar    1  UNL11       0.0205
     16 C           1.1408    0.2834    2.0778 C.ar    1  UNL11       0.0444
     17 C           2.0958    1.3367    2.4087 C.ar    1  UNL11      -0.0490
     18 C           2.3441    1.7455    3.6630 C.ar    1  UNL11      -0.0605
     19 C           1.6658    1.1593    4.7025 C.ar    1  UNL11      -0.0540
     20 C           0.7618    0.1725    4.4230 C.ar    1  UNL11      -0.0172
     21 C           0.0857   -0.3452    5.4917 C.ar    1  UNL11      -0.0540
     22 C          -0.8600   -1.3056    5.3097 C.ar    1  UNL11      -0.0612
     23 C          -1.1011   -1.7309    3.9994 C.ar    1  UNL11      -0.0611
     24 C          -0.4714   -1.2711    2.8925 C.ar    1  UNL11      -0.0533
     25 C           0.4995   -0.2719    3.1261 C.ar    1  UNL11      -0.0058
     26 H           0.2575   -0.4347   -1.1816 H       1  UNL11       0.1494
     27 H          -0.7914   -1.5254    1.2653 H       1  UNL11       0.0529
     28 H          -1.2897    0.1578    1.3707 H       1  UNL11       0.0529
     29 H          -5.5691   -0.2911   -0.3050 H       1  UNL11       0.4829
     30 H          -4.4282   -3.8952   -2.9952 H       1  UNL11       0.0627
     31 H          -2.3346   -5.2871   -3.1391 H       1  UNL11       0.0618
     32 H          -0.3755   -4.6095   -1.7833 H       1  UNL11       0.0618
     33 H          -0.4664   -2.6763   -0.3128 H       1  UNL11       0.0624
     34 H           2.6112    1.7626    1.5821 H       1  UNL11       0.0625
     35 H           3.0721    2.5314    3.8977 H       1  UNL11       0.0618
     36 H           1.8713    1.4872    5.7118 H       1  UNL11       0.0624
     37 H           0.2985    0.0189    6.5079 H       1  UNL11       0.0624
     38 H          -1.4063   -1.7110    6.1058 H       1  UNL11       0.0618
     39 H          -1.8521   -2.5089    3.8640 H       1  UNL11       0.0618
     40 H          -0.6188   -1.5605    1.8647 H       1  UNL11       0.0624
@<TRIPOS>BOND
     1     1     2    2
     2     2     3   am
     3     2    16    1
     4     3     4    1
     5     3    26    1
     6     4     5    1
     7     4    27    1
     8     4    28    1
     9     5     6    2
    10     6     7    1
    11     7     8   am
    12     7    29    1
    13     8     9    2
    14     8    10    1
    15    10    11   ar
    16    11    12   ar
    17    11    30    1
    18    12    13   ar
    19    12    31    1
    20    13    14   ar
    21    13    32    1
    22    14    15   ar
    23    14    33    1
    24    15     5    1
    25    15    10   ar
    26    16    17   ar
    27    17    18   ar
    28    17    34    1
    29    18    19   ar
    30    18    35    1
    31    19    20   ar
    32    19    36    1
    33    20    21   ar
    34    21    22   ar
    35    21    37    1
    36    22    23   ar
    37    22    38    1
    38    23    24   ar
    39    23    39    1
    40    24    25   ar
    41    24    40    1
    42    25    16   ar
    43    25    20   ar
@<TRIPOS>MOLECULE
*****
 40 43 0 0 0
SMALL
GASTEIGER

@<TRIPOS>ATOM
      1 O           2.1778    0.3521    0.0198 O.2     1  UNL11      -0.2702
      2 C           1.0650    0.0856    0.6898 C.2     1  UNL11       0.2450
      3 N           0.0185   -0.3897   -0.1984 N.am    1  UNL11      -0.3055
      4 C          -1.1740   -0.6558    0.5335 C.3     1  UNL11       0.0605
      5 C          -1.6658   -1.8318    1.1804 C.2     1  UNL11       0.1319
      6 N          -1.4050   -3.0848    0.8101 N.2     1  UNL11      -0.0060
      7 N          -1.5659   -4.1024    1.6382 N.am    1  UNL11      -0.0355
      8 C          -2.0018   -3.9558    2.9027 C.2     1  UNL11       0.4383
      9 O          -2.1237   -4.9459    3.6526 O.2     1  UNL11      -0.2116
     10 C          -2.3132   -2.7013    3.3857 C.ar    1  UNL11       0.1005
     11 C          -2.8545   -2.5351    4.6567 C.ar    1  UNL11      -0.0441
     12 C          -3.2300   -1.2512    5.0174 C.ar    1  UNL11      -0.0608
     13 C          -3.0495   -0.2128    4.1283 C.ar    1  UNL11      -0.0611
     14 C          -2.5068   -0.3850    2.8768 C.ar    1  UNL11      -0.0517
     15 C          -2.1394   -1.6604    2.5158 C.ar    1  UNL11       0.0205
     16 C           1.1408    0.2834    2.0778 C.ar    1  UNL11       0.0444
     17 C          -0.1554    0.6703    2.6266 C.ar    1  UNL11      -0.0490
     18 C          -0.3704    0.8969    3.9322 C.ar    1  UNL11      -0.0605
     19 C           0.6711    0.7527    4.8148 C.ar    1  UNL11      -0.0540
     20 C           1.8962    0.3872    4.3305 C.ar    1  UNL11      -0.0172
     21 C           2.8845    0.2174    5.2586 C.ar    1  UNL11      -0.0540
     22 C           4.1277   -0.1810    4.8770 C.ar    1  UNL11      -0.0612
     23 C           4.3417   -0.4026    3.5129 C.ar    1  UNL11      -0.0611
     24 C           3.4176   -0.2521    2.5349 C.ar    1  UNL11      -0.0533
     25 C           2.1395    0.1582    2.9753 C.ar    1  UNL11      -0.0058
     26 H           0.2575   -0.4347   -1.1816 H       1  UNL11       0.1494
     27 H          -1.0362    0.0973    1.4565 H       1  UNL11       0.0529
     28 H          -2.0588   -0.0682    0.0355 H       1  UNL11       0.0529
     29 H          -1.3417   -5.0666    1.3520 H       1  UNL11       0.4829
     30 H          -2.9722   -3.3413    5.3387 H       1  UNL11       0.0627
     31 H          -3.6903   -1.0184    5.9944 H       1  UNL11       0.0618
     32 H          -3.3478    0.8212    4.3715 H       1  UNL11       0.0618
     33 H          -2.3825    0.4069    2.1795 H       1  UNL11       0.0624
     34 H          -0.9376    0.7831    1.9155 H       1  UNL11       0.0625
     35 H          -1.3475    1.1970    4.3292 H       1  UNL11       0.0618
     36 H           0.4962    0.9405    5.8648 H       1  UNL11       0.0624
     37 H           2.6769    0.3956    6.3243 H       1  UNL11       0.0624
     38 H           4.9018   -0.3351    5.5652 H       1  UNL11       0.0618
     39 H           5.3438   -0.7102    3.2148 H       1  UNL11       0.0618
     40 H           3.5274   -0.4106    1.4744 H       1  UNL11       0.0624
@<TRIPOS>BOND
     1     1     2    2
     2     2     3   am
     3     2    16    1
     4     3     4    1
     5     3    26    1
     6     4     5    1
     7     4    27    1
     8     4    28    1
     9     5     6    2
    10     6     7    1
    11     7     8   am
    12     7    29    1
    13     8     9    2
    14     8    10    1
    15    10    11   ar
    16    11    12   ar
    17    11    30    1
    18    12    13   ar
    19    12    31    1
    20    13    14   ar
    21    13    32    1
    22    14    15   ar
    23    14    33    1
    24    15     5    1
    25    15    10   ar
    26    16    17   ar
    27    17    18   ar
    28    17    34    1
    29    18    19   ar
    30    18    35    1
    31    19    20   ar
    32    19    36    1
    33    20    21   ar
    34    21    22   ar
    35    21    37    1
    36    22    23   ar
    37    22    38    1
    38    23    24   ar
    39    23    39    1
    40    24    25   ar
    41    24    40    1
    42    25    16   ar
    43    25    20   ar
@<TRIPOS>MOLECULE
*****
 40 43 0 0 0
SMALL
GASTEIGER

@<TRIPOS>ATOM
      1 O           0.6381    0.1470    1.9437 O.2     1  UNL11      -0.2702
      2 C           1.0650    0.0856    0.6898 C.2     1  UNL11       0.2450
      3 N           0.0185   -0.3897   -0.1984 N.am    1  UNL11      -0.3055
      4 C          -1.1740   -0.6558    0.5335 C.3     1  UNL11       0.0605
      5 C          -1.4996   -0.5409    1.9206 C.2     1  UNL11       0.1319
      6 N          -2.0090    0.5408    2.5086 N.2     1  UNL11      -0.0060
      7 N          -2.6264    0.4724    3.6753 N.am    1  UNL11      -0.0355
      8 C          -2.7856   -0.6789    4.3533 C.2     1  UNL11       0.4383
      9 O          -3.3895   -0.6961    5.4453 O.2     1  UNL11      -0.2116
     10 C          -2.2851   -1.8582    3.8405 C.ar    1  UNL11       0.1005
     11 C          -2.3542   -3.0434    4.5662 C.ar    1  UNL11      -0.0441
     12 C          -1.7358   -4.1546    4.0163 C.ar    1  UNL11      -0.0608
     13 C          -1.0992   -4.0474    2.7979 C.ar    1  UNL11      -0.0611
     14 C          -1.0422   -2.8738    2.0839 C.ar    1  UNL11      -0.0517
     15 C          -1.6507   -1.7688    2.6323 C.ar    1  UNL11       0.0205
     16 C           2.3881    0.5095    0.4872 C.ar    1  UNL11       0.0444
     17 C           2.7600    0.4212   -0.9216 C.ar    1  UNL11      -0.0490
     18 C           3.9609    0.7882   -1.3963 C.ar    1  UNL11      -0.0605
     19 C           4.8992    1.2844   -0.5258 C.ar    1  UNL11      -0.0540
     20 C           4.5781    1.3828    0.7994 C.ar    1  UNL11      -0.0172
     21 C           5.5345    1.9227    1.6124 C.ar    1  UNL11      -0.0540
     22 C           5.2939    2.0950    2.9399 C.ar    1  UNL11      -0.0612
     23 C           4.0433    1.6981    3.4238 C.ar    1  UNL11      -0.0611
     24 C           3.0484    1.1527    2.6849 C.ar    1  UNL11      -0.0533
     25 C           3.3385    0.9958    1.3112 C.ar    1  UNL11      -0.0058
     26 H           0.2575   -0.4347   -1.1816 H       1  UNL11       0.1494
     27 H          -1.9181    0.1421    0.0359 H       1  UNL11       0.0529
     28 H          -1.6935   -1.6016    0.0732 H       1  UNL11       0.0529
     29 H          -3.0369    1.3094    4.1140 H       1  UNL11       0.4829
     30 H          -2.8630   -3.1164    5.4962 H       1  UNL11       0.0627
     31 H          -1.7141   -5.1355    4.5241 H       1  UNL11       0.0618
     32 H          -0.5833   -4.9045    2.3325 H       1  UNL11       0.0618
     33 H          -0.5372   -2.7791    1.1541 H       1  UNL11       0.0624
     34 H           2.0146    0.0234   -1.5671 H       1  UNL11       0.0625
     35 H           4.2301    0.7067   -2.4562 H       1  UNL11       0.0618
     36 H           5.8669    1.5746   -0.9100 H       1  UNL11       0.0624
     37 H           6.5050    2.2289    1.1942 H       1  UNL11       0.0624
     38 H           5.9999    2.5201    3.5860 H       1  UNL11       0.0618
     39 H           3.8634    1.8289    4.4906 H       1  UNL11       0.0618
     40 H           2.0700    0.8327    3.0043 H       1  UNL11       0.0624
@<TRIPOS>BOND
     1     1     2    2
     2     2     3   am
     3     2    16    1
     4     3     4    1
     5     3    26    1
     6     4     5    1
     7     4    27    1
     8     4    28    1
     9     5     6    2
    10     6     7    1
    11     7     8   am
    12     7    29    1
    13     8     9    2
    14     8    10    1
    15    10    11   ar
    16    11    12   ar
    17    11    30    1
    18    12    13   ar
    19    12    31    1
    20    13    14   ar
    21    13    32    1
    22    14    15   ar
    23    14    33    1
    24    15     5    1
    25    15    10   ar
    26    16    17   ar
    27    17    18   ar
    28    17    34    1
    29    18    19   ar
    30    18    35    1
    31    19    20   ar
    32    19    36    1
    33    20    21   ar
    34    21    22   ar
    35    21    37    1
    36    22    23   ar
    37    22    38    1
    38    23    24   ar
    39    23    39    1
    40    24    25   ar
    41    24    40    1
    42    25    16   ar
    43    25    20   ar
@<TRIPOS>MOLECULE
*****
 40 43 0 0 0
SMALL
GASTEIGER

@<TRIPOS>ATOM
      1 O           2.1778    0.3521    0.0198 O.2     1  UNL11      -0.2702
      2 C           1.0650    0.0856    0.6898 C.2     1  UNL11       0.2450
      3 N           0.0185   -0.3897   -0.1984 N.am    1  UNL11      -0.3055
      4 C          -1.1740   -0.6558    0.5335 C.3     1  UNL11       0.0605
      5 C          -2.0230    0.1754    1.3282 C.2     1  UNL11       0.1319
      6 N          -1.6461    0.8571    2.4092 N.2     1  UNL11      -0.0060
      7 N          -2.3513    1.8757    2.8698 N.am    1  UNL11      -0.0355
      8 C          -3.4911    2.2980    2.2927 C.2     1  UNL11       0.4383
      9 O          -4.1149    3.2748    2.7556 O.2     1  UNL11      -0.2116
     10 C          -3.9791    1.6547    1.1737 C.ar    1  UNL11       0.1005
     11 C          -5.2027    2.0125    0.6159 C.ar    1  UNL11      -0.0441
     12 C          -5.6594    1.2451   -0.4433 C.ar    1  UNL11      -0.0608
     13 C          -4.8989    0.1885   -0.8976 C.ar    1  UNL11      -0.0611
     14 C          -3.6872   -0.1535   -0.3453 C.ar    1  UNL11      -0.0517
     15 C          -3.2360    0.6042    0.7104 C.ar    1  UNL11       0.0205
     16 C           1.1408    0.2834    2.0778 C.ar    1  UNL11       0.0444
     17 C           2.0958    1.3367    2.4087 C.ar    1  UNL11      -0.0490
     18 C           2.3441    1.7455    3.6630 C.ar    1  UNL11      -0.0605
     19 C           1.6658    1.1593    4.7025 C.ar    1  UNL11      -0.0540
     20 C           0.7618    0.1725    4.4230 C.ar    1  UNL11      -0.0172
     21 C           0.0857   -0.3452    5.4917 C.ar    1  UNL11      -0.0540
     22 C          -0.8600   -1.3056    5.3097 C.ar    1  UNL11      -0.0612
     23 C          -1.1011   -1.7309    3.9994 C.ar    1  UNL11      -0.0611
     24 C          -0.4714   -1.2711    2.8925 C.ar    1  UNL11      -0.0533
     25 C           0.4995   -0.2719    3.1261 C.ar    1  UNL11      -0.0058
     26 H           0.2575   -0.4347   -1.1816 H       1  UNL11       0.1494
     27 H          -1.9079   -0.9830   -0.3566 H       1  UNL11       0.0529
     28 H          -1.0897   -1.7233    1.0127 H       1  UNL11       0.0529
     29 H          -2.0426    2.4121    3.6937 H       1  UNL11       0.4829
     30 H          -5.7706    2.8401    0.9647 H       1  UNL11       0.0627
     31 H          -6.6286    1.4329   -0.9393 H       1  UNL11       0.0618
     32 H          -5.2332   -0.4551   -1.7291 H       1  UNL11       0.0618
     33 H          -3.1051   -0.9778   -0.6775 H       1  UNL11       0.0624
     34 H           2.6112    1.7626    1.5821 H       1  UNL11       0.0625
     35 H           3.0721    2.5314    3.8977 H       1  UNL11       0.0618
     36 H           1.8713    1.4872    5.7118 H       1  UNL11       0.0624
     37 H           0.2985    0.0189    6.5079 H       1  UNL11       0.0624
     38 H          -1.4063   -1.7110    6.1058 H       1  UNL11       0.0618
     39 H          -1.8521   -2.5089    3.8640 H       1  UNL11       0.0618
     40 H          -0.6188   -1.5605    1.8647 H       1  UNL11       0.0624
@<TRIPOS>BOND
     1     1     2    2
     2     2     3   am
     3     2    16    1
     4     3     4    1
     5     3    26    1
     6     4     5    1
     7     4    27    1
     8     4    28    1
     9     5     6    2
    10     6     7    1
    11     7     8   am
    12     7    29    1
    13     8     9    2
    14     8    10    1
    15    10    11   ar
    16    11    12   ar
    17    11    30    1
    18    12    13   ar
    19    12    31    1
    20    13    14   ar
    21    13    32    1
    22    14    15   ar
    23    14    33    1
    24    15     5    1
    25    15    10   ar
    26    16    17   ar
    27    17    18   ar
    28    17    34    1
    29    18    19   ar
    30    18    35    1
    31    19    20   ar
    32    19    36    1
    33    20    21   ar
    34    21    22   ar
    35    21    37    1
    36    22    23   ar
    37    22    38    1
    38    23    24   ar
    39    23    39    1
    40    24    25   ar
    41    24    40    1
    42    25    16   ar
    43    25    20   ar
@<TRIPOS>MOLECULE
*****
 40 43 0 0 0
SMALL
GASTEIGER

@<TRIPOS>ATOM
      1 O           2.1778    0.3521    0.0198 O.2     1  UNL11      -0.2702
      2 C           1.0650    0.0856    0.6898 C.2     1  UNL11       0.2450
      3 N           0.0185   -0.3897   -0.1984 N.am    1  UNL11      -0.3055
      4 C          -1.1740   -0.6558    0.5335 C.3     1  UNL11       0.0605
      5 C          -1.9463   -1.8443    0.7190 C.2     1  UNL11       0.1319
      6 N          -3.2243   -1.9979    0.3752 N.2     1  UNL11      -0.0060
      7 N          -3.7647   -3.1946    0.2237 N.am    1  UNL11      -0.0355
      8 C          -3.0769   -4.3369    0.4039 C.2     1  UNL11       0.4383
      9 O          -3.6268   -5.4443    0.2343 O.2     1  UNL11      -0.2116
     10 C          -1.7482   -4.2930    0.7735 C.ar    1  UNL11       0.1005
     11 C          -1.0428   -5.4584    1.0572 C.ar    1  UNL11      -0.0441
     12 C           0.2554   -5.3113    1.5182 C.ar    1  UNL11      -0.0608
     13 C           0.7874   -4.0479    1.6661 C.ar    1  UNL11      -0.0611
     14 C           0.0856   -2.9017    1.3763 C.ar    1  UNL11      -0.0517
     15 C          -1.2054   -3.0468    0.9244 C.ar    1  UNL11       0.0205
     16 C           1.1408    0.2834    2.0778 C.ar    1  UNL11       0.0444
     17 C          -0.1229   -0.0509    2.7276 C.ar    1  UNL11      -0.0490
     18 C          -0.3176    0.0238    4.0538 C.ar    1  UNL11      -0.0605
     19 C           0.7193    0.4252    4.8589 C.ar    1  UNL11      -0.0540
     20 C           1.9164    0.7409    4.2790 C.ar    1  UNL11      -0.0172
     21 C           2.9244    1.0929    5.1317 C.ar    1  UNL11      -0.0540
     22 C           4.1620    1.3888    4.6514 C.ar    1  UNL11      -0.0612
     23 C           4.3486    1.3185    3.2672 C.ar    1  UNL11      -0.0611
     24 C           3.4014    0.9832    2.3597 C.ar    1  UNL11      -0.0533
     25 C           2.1326    0.6792    2.9014 C.ar    1  UNL11      -0.0058
     26 H           0.2575   -0.4347   -1.1816 H       1  UNL11       0.1494
     27 H          -0.8014   -0.4239    1.6495 H       1  UNL11       0.0529
     28 H          -1.8808    0.2769    0.4511 H       1  UNL11       0.0529
     29 H          -4.7480   -3.3059   -0.0634 H       1  UNL11       0.4829
     30 H          -1.4590   -6.4267    0.9222 H       1  UNL11       0.0627
     31 H           0.8902   -6.1728    1.7931 H       1  UNL11       0.0618
     32 H           1.8119   -3.8873    2.0432 H       1  UNL11       0.0618
     33 H           0.4822   -1.9247    1.5061 H       1  UNL11       0.0624
     34 H          -0.9078   -0.3481    2.0751 H       1  UNL11       0.0625
     35 H          -1.2759   -0.2209    4.5274 H       1  UNL11       0.0618
     36 H           0.5582    0.4889    5.9258 H       1  UNL11       0.0624
     37 H           2.7413    1.1315    6.2159 H       1  UNL11       0.0624
     38 H           4.9592    1.6466    5.2796 H       1  UNL11       0.0618
     39 H           5.3400    1.5686    2.8902 H       1  UNL11       0.0618
     40 H           3.4910    0.9115    1.2880 H       1  UNL11       0.0624
@<TRIPOS>BOND
     1     1     2    2
     2     2     3   am
     3     2    16    1
     4     3     4    1
     5     3    26    1
     6     4     5    1
     7     4    27    1
     8     4    28    1
     9     5     6    2
    10     6     7    1
    11     7     8   am
    12     7    29    1
    13     8     9    2
    14     8    10    1
    15    10    11   ar
    16    11    12   ar
    17    11    30    1
    18    12    13   ar
    19    12    31    1
    20    13    14   ar
    21    13    32    1
    22    14    15   ar
    23    14    33    1
    24    15     5    1
    25    15    10   ar
    26    16    17   ar
    27    17    18   ar
    28    17    34    1
    29    18    19   ar
    30    18    35    1
    31    19    20   ar
    32    19    36    1
    33    20    21   ar
    34    21    22   ar
    35    21    37    1
    36    22    23   ar
    37    22    38    1
    38    23    24   ar
    39    23    39    1
    40    24    25   ar
    41    24    40    1
    42    25    16   ar
    43    25    20   ar
@<TRIPOS>MOLECULE
*****
 40 43 0 0 0
SMALL
GASTEIGER

@<TRIPOS>ATOM
      1 O           0.6381    0.1470    1.9437 O.2     1  UNL11      -0.2702
      2 C           1.0650    0.0856    0.6898 C.2     1  UNL11       0.2450
      3 N           0.0185   -0.3897   -0.1984 N.am    1  UNL11      -0.3055
      4 C          -1.1740   -0.6558    0.5335 C.3     1  UNL11       0.0605
      5 C          -1.4052   -1.0712    1.8816 C.2     1  UNL11       0.1319
      6 N          -2.5996   -1.2954    2.4279 N.2     1  UNL11      -0.0060
      7 N          -2.7376   -2.0200    3.5247 N.am    1  UNL11      -0.0355
      8 C          -1.6970   -2.5794    4.1687 C.2     1  UNL11       0.4383
      9 O          -1.8786   -3.2685    5.1932 O.2     1  UNL11      -0.2116
     10 C          -0.4134   -2.4001    3.6951 C.ar    1  UNL11       0.1005
     11 C           0.6853   -2.8888    4.3953 C.ar    1  UNL11      -0.0441
     12 C           1.9392   -2.5736    3.8975 C.ar    1  UNL11      -0.0608
     13 C           2.0468   -1.8142    2.7517 C.ar    1  UNL11      -0.0611
     14 C           0.9555   -1.3416    2.0618 C.ar    1  UNL11      -0.0517
     15 C          -0.2897   -1.6491    2.5589 C.ar    1  UNL11       0.0205
     16 C           2.3881    0.5095    0.4872 C.ar    1  UNL11       0.0444
     17 C           2.7711    1.5260    1.4624 C.ar    1  UNL11      -0.0490
     18 C           3.9906    2.0851    1.5110 C.ar    1  UNL11      -0.0605
     19 C           4.9446    1.6849    0.6088 C.ar    1  UNL11      -0.0540
     20 C           4.6163    0.7313   -0.3142 C.ar    1  UNL11      -0.0172
     21 C           5.6168    0.3411   -1.1591 C.ar    1  UNL11      -0.0540
     22 C           5.3965   -0.6282   -2.0874 C.ar    1  UNL11      -0.0612
     23 C           4.1187   -1.1944   -2.1353 C.ar    1  UNL11      -0.0611
     24 C           3.0770   -0.8594   -1.3380 C.ar    1  UNL11      -0.0533
     25 C           3.3504    0.1476   -0.3856 C.ar    1  UNL11      -0.0058
     26 H           0.2575   -0.4347   -1.1816 H       1  UNL11       0.1494
     27 H          -1.6878    0.4276    0.5149 H       1  UNL11       0.0529
     28 H          -1.9496   -1.1643   -0.1850 H       1  UNL11       0.0529
     29 H          -3.6664   -2.2074    3.9296 H       1  UNL11       0.4829
     30 H           0.5880   -3.4877    5.2676 H       1  UNL11       0.0627
     31 H           2.8735   -2.8937    4.3928 H       1  UNL11       0.0618
     32 H           3.0263   -1.5299    2.3307 H       1  UNL11       0.0618
     33 H           1.0310   -0.7400    1.1894 H       1  UNL11       0.0624
     34 H           2.0065    1.8207    2.1397 H       1  UNL11       0.0625
     35 H           4.2613    2.8554    2.2431 H       1  UNL11       0.0618
     36 H           5.9242    2.1402    0.6473 H       1  UNL11       0.0624
     37 H           6.6116    0.8056   -1.0875 H       1  UNL11       0.0624
     38 H           6.1464   -0.9602   -2.7385 H       1  UNL11       0.0618
     39 H           3.9477   -1.9620   -2.8899 H       1  UNL11       0.0618
     40 H           2.0776   -1.2628   -1.3305 H       1  UNL11       0.0624
@<TRIPOS>BOND
     1     1     2    2
     2     2     3   am
     3     2    16    1
     4     3     4    1
     5     3    26    1
     6     4     5    1
     7     4    27    1
     8     4    28    1
     9     5     6    2
    10     6     7    1
    11     7     8   am
    12     7    29    1
    13     8     9    2
    14     8    10    1
    15    10    11   ar
    16    11    12   ar
    17    11    30    1
    18    12    13   ar
    19    12    31    1
    20    13    14   ar
    21    13    32    1
    22    14    15   ar
    23    14    33    1
    24    15     5    1
    25    15    10   ar
    26    16    17   ar
    27    17    18   ar
    28    17    34    1
    29    18    19   ar
    30    18    35    1
    31    19    20   ar
    32    19    36    1
    33    20    21   ar
    34    21    22   ar
    35    21    37    1
    36    22    23   ar
    37    22    38    1
    38    23    24   ar
    39    23    39    1
    40    24    25   ar
    41    24    40    1
    42    25    16   ar
    43    25    20   ar
@<TRIPOS>MOLECULE
*****
 40 43 0 0 0
SMALL
GASTEIGER

@<TRIPOS>ATOM
      1 O           2.1778    0.3521    0.0198 O.2     1  UNL11      -0.2702
      2 C           1.0650    0.0856    0.6898 C.2     1  UNL11       0.2450
      3 N           0.0185   -0.3897   -0.1984 N.am    1  UNL11      -0.3055
      4 C          -1.1740   -0.6558    0.5335 C.3     1  UNL11       0.0605
      5 C          -1.9463   -1.8443    0.7190 C.2     1  UNL11       0.1319
      6 N          -2.1988   -2.4279    1.8898 N.2     1  UNL11      -0.0060
      7 N          -3.1991   -3.2784    2.0414 N.am    1  UNL11      -0.0355
      8 C          -4.0291   -3.6192    1.0386 C.2     1  UNL11       0.4383
      9 O          -4.9697   -4.4158    1.2340 O.2     1  UNL11      -0.2116
     10 C          -3.8500   -3.0824   -0.2198 C.ar    1  UNL11       0.1005
     11 C          -4.6356   -3.4907   -1.2933 C.ar    1  UNL11      -0.0441
     12 C          -4.3172   -2.9732   -2.5384 C.ar    1  UNL11      -0.0608
     13 C          -3.2661   -2.0892   -2.6609 C.ar    1  UNL11      -0.0611
     14 C          -2.4996   -1.6853   -1.5934 C.ar    1  UNL11      -0.0517
     15 C          -2.8113   -2.2035   -0.3579 C.ar    1  UNL11       0.0205
     16 C           1.1408    0.2834    2.0778 C.ar    1  UNL11       0.0444
     17 C           2.4665    0.7504    2.4720 C.ar    1  UNL11      -0.0490
     18 C           2.8041    1.0419    3.7382 C.ar    1  UNL11      -0.0605
     19 C           1.8618    0.9086    4.7276 C.ar    1  UNL11      -0.0540
     20 C           0.6098    0.4771    4.3879 C.ar    1  UNL11      -0.0172
     21 C          -0.2987    0.4037    5.4059 C.ar    1  UNL11      -0.0540
     22 C          -1.5801    0.0199    5.1601 C.ar    1  UNL11      -0.0612
     23 C          -1.9159   -0.2921    3.8388 C.ar    1  UNL11      -0.0611
     24 C          -1.0738   -0.2483    2.7796 C.ar    1  UNL11      -0.0533
     25 C           0.2454    0.1594    3.0785 C.ar    1  UNL11      -0.0058
     26 H           0.2575   -0.4347   -1.1816 H       1  UNL11       0.1494
     27 H          -0.8014   -0.4239    1.6495 H       1  UNL11       0.0529
     28 H          -1.8808    0.2769    0.4511 H       1  UNL11       0.0529
     29 H          -3.4020   -3.7095    2.9550 H       1  UNL11       0.4829
     30 H          -5.4539   -4.1594   -1.1821 H       1  UNL11       0.0627
     31 H          -4.8649   -3.2525   -3.4564 H       1  UNL11       0.0618
     32 H          -2.9718   -1.6653   -3.6361 H       1  UNL11       0.0618
     33 H          -1.6765   -1.0197   -1.6833 H       1  UNL11       0.0624
     34 H           3.1751    0.8330    1.6838 H       1  UNL11       0.0625
     35 H           3.8074    1.3822    4.0214 H       1  UNL11       0.0618
     36 H           2.1378    1.1395    5.7468 H       1  UNL11       0.0624
     37 H           0.0010    0.6629    6.4323 H       1  UNL11       0.0624
     38 H          -2.3037   -0.0312    5.9153 H       1  UNL11       0.0618
     39 H          -2.9416   -0.6098    3.6529 H       1  UNL11       0.0618
     40 H          -1.2793   -0.4748    1.7460 H       1  UNL11       0.0624
@<TRIPOS>BOND
     1     1     2    2
     2     2     3   am
     3     2    16    1
     4     3     4    1
     5     3    26    1
     6     4     5    1
     7     4    27    1
     8     4    28    1
     9     5     6    2
    10     6     7    1
    11     7     8   am
    12     7    29    1
    13     8     9    2
    14     8    10    1
    15    10    11   ar
    16    11    12   ar
    17    11    30    1
    18    12    13   ar
    19    12    31    1
    20    13    14   ar
    21    13    32    1
    22    14    15   ar
    23    14    33    1
    24    15     5    1
    25    15    10   ar
    26    16    17   ar
    27    17    18   ar
    28    17    34    1
    29    18    19   ar
    30    18    35    1
    31    19    20   ar
    32    19    36    1
    33    20    21   ar
    34    21    22   ar
    35    21    37    1
    36    22    23   ar
    37    22    38    1
    38    23    24   ar
    39    23    39    1
    40    24    25   ar
    41    24    40    1
    42    25    16   ar
    43    25    20   ar
@<TRIPOS>MOLECULE
*****
 40 43 0 0 0
SMALL
GASTEIGER

@<TRIPOS>ATOM
      1 O           0.6381    0.1470    1.9437 O.2     1  UNL11      -0.2702
      2 C           1.0650    0.0856    0.6898 C.2     1  UNL11       0.2450
      3 N           0.0185   -0.3897   -0.1984 N.am    1  UNL11      -0.3055
      4 C          -1.1740   -0.6558    0.5335 C.3     1  UNL11       0.0605
      5 C          -2.5574   -0.5881    0.1799 C.2     1  UNL11       0.1319
      6 N          -3.3398    0.4814    0.3186 N.2     1  UNL11      -0.0060
      7 N          -4.4716    0.6066   -0.3524 N.am    1  UNL11      -0.0355
      8 C          -4.9182   -0.3240   -1.2155 C.2     1  UNL11       0.4383
      9 O          -5.9865   -0.1542   -1.8380 O.2     1  UNL11      -0.2116
     10 C          -4.1911   -1.4778   -1.4256 C.ar    1  UNL11       0.1005
     11 C          -4.6782   -2.4954   -2.2402 C.ar    1  UNL11      -0.0441
     12 C          -3.9276   -3.6577   -2.3114 C.ar    1  UNL11      -0.0608
     13 C          -2.7523   -3.7552   -1.5969 C.ar    1  UNL11      -0.0611
     14 C          -2.2746   -2.7418   -0.8000 C.ar    1  UNL11      -0.0517
     15 C          -3.0224   -1.5898   -0.7242 C.ar    1  UNL11       0.0205
     16 C           2.3881    0.5095    0.4872 C.ar    1  UNL11       0.0444
     17 C           3.0042    0.9318    1.7413 C.ar    1  UNL11      -0.0490
     18 C           4.2730    1.3599    1.8374 C.ar    1  UNL11      -0.0605
     19 C           5.0508    1.4004    0.7070 C.ar    1  UNL11      -0.0540
     20 C           4.5023    1.0069   -0.4818 C.ar    1  UNL11      -0.0172
     21 C           5.3346    1.0277   -1.5653 C.ar    1  UNL11      -0.0540
     22 C           4.8901    0.6193   -2.7841 C.ar    1  UNL11      -0.0612
     23 C           3.5632    0.1866   -2.8730 C.ar    1  UNL11      -0.0611
     24 C           2.6781    0.1412   -1.8494 C.ar    1  UNL11      -0.0533
     25 C           3.1822    0.5696   -0.6012 C.ar    1  UNL11      -0.0058
     26 H           0.2575   -0.4347   -1.1816 H       1  UNL11       0.1494
     27 H          -1.0325   -1.8241    0.7640 H       1  UNL11       0.0529
     28 H          -1.0218   -0.2998    1.6409 H       1  UNL11       0.0529
     29 H          -5.0611    1.4463   -0.2566 H       1  UNL11       0.4829
     30 H          -5.5768   -2.4005   -2.7992 H       1  UNL11       0.0627
     31 H          -4.2397   -4.5315   -2.9111 H       1  UNL11       0.0618
     32 H          -2.1330   -4.6682   -1.6155 H       1  UNL11       0.0618
     33 H          -1.3801   -2.8171   -0.2318 H       1  UNL11       0.0624
     34 H           2.3719    0.8980    2.5954 H       1  UNL11       0.0625
     35 H           4.7197    1.6838    2.7850 H       1  UNL11       0.0618
     36 H           6.0705    1.7499    0.7865 H       1  UNL11       0.0624
     37 H           6.3747    1.3692   -1.4553 H       1  UNL11       0.0624
     38 H           5.5073    0.6084   -3.6300 H       1  UNL11       0.0618
     39 H           3.2121   -0.1277   -3.8556 H       1  UNL11       0.0618
     40 H           1.6505   -0.1837   -1.8617 H       1  UNL11       0.0624
@<TRIPOS>BOND
     1     1     2    2
     2     2     3   am
     3     2    16    1
     4     3     4    1
     5     3    26    1
     6     4     5    1
     7     4    27    1
     8     4    28    1
     9     5     6    2
    10     6     7    1
    11     7     8   am
    12     7    29    1
    13     8     9    2
    14     8    10    1
    15    10    11   ar
    16    11    12   ar
    17    11    30    1
    18    12    13   ar
    19    12    31    1
    20    13    14   ar
    21    13    32    1
    22    14    15   ar
    23    14    33    1
    24    15     5    1
    25    15    10   ar
    26    16    17   ar
    27    17    18   ar
    28    17    34    1
    29    18    19   ar
    30    18    35    1
    31    19    20   ar
    32    19    36    1
    33    20    21   ar
    34    21    22   ar
    35    21    37    1
    36    22    23   ar
    37    22    38    1
    38    23    24   ar
    39    23    39    1
    40    24    25   ar
    41    24    40    1
    42    25    16   ar
    43    25    20   ar
@<TRIPOS>MOLECULE
*****
 40 43 0 0 0
SMALL
GASTEIGER

@<TRIPOS>ATOM
      1 O           2.1778    0.3521    0.0198 O.2     1  UNL11      -0.2702
      2 C           1.0650    0.0856    0.6898 C.2     1  UNL11       0.2450
      3 N           0.0185   -0.3897   -0.1984 N.am    1  UNL11      -0.3055
      4 C          -1.1740   -0.6558    0.5335 C.3     1  UNL11       0.0605
      5 C          -1.4616   -1.5400    1.6193 C.2     1  UNL11       0.1319
      6 N          -2.3565   -2.5269    1.5969 N.2     1  UNL11      -0.0060
      7 N          -2.3156   -3.5223    2.4655 N.am    1  UNL11      -0.0355
      8 C          -1.3811   -3.6157    3.4291 C.2     1  UNL11       0.4383
      9 O          -1.3743   -4.5832    4.2175 O.2     1  UNL11      -0.2116
     10 C          -0.4128   -2.6400    3.5502 C.ar    1  UNL11       0.1005
     11 C           0.5055   -2.6653    4.5953 C.ar    1  UNL11      -0.0441
     12 C           1.3749   -1.5912    4.6946 C.ar    1  UNL11      -0.0608
     13 C           1.3037   -0.5688    3.7722 C.ar    1  UNL11      -0.0611
     14 C           0.3978   -0.5555    2.7381 C.ar    1  UNL11      -0.0517
     15 C          -0.4697   -1.6187    2.6424 C.ar    1  UNL11       0.0205
     16 C           1.1408    0.2834    2.0778 C.ar    1  UNL11       0.0444
     17 C          -0.1554    0.6703    2.6266 C.ar    1  UNL11      -0.0490
     18 C          -0.3704    0.8969    3.9322 C.ar    1  UNL11      -0.0605
     19 C           0.6711    0.7527    4.8148 C.ar    1  UNL11      -0.0540
     20 C           1.8962    0.3872    4.3305 C.ar    1  UNL11      -0.0172
     21 C           2.8845    0.2174    5.2586 C.ar    1  UNL11      -0.0540
     22 C           4.1277   -0.1810    4.8770 C.ar    1  UNL11      -0.0612
     23 C           4.3417   -0.4026    3.5129 C.ar    1  UNL11      -0.0611
     24 C           3.4176   -0.2521    2.5349 C.ar    1  UNL11      -0.0533
     25 C           2.1395    0.1582    2.9753 C.ar    1  UNL11      -0.0058
     26 H           0.2575   -0.4347   -1.1816 H       1  UNL11       0.1494
     27 H          -1.3708    0.4187    1.0282 H       1  UNL11       0.0529
     28 H          -2.0848   -0.6122   -0.2046 H       1  UNL11       0.0529
     29 H          -2.9980   -4.2935    2.4290 H       1  UNL11       0.4829
     30 H           0.5610   -3.4680    5.2892 H       1  UNL11       0.0627
     31 H           2.1247   -1.5056    5.5015 H       1  UNL11       0.0618
     32 H           1.9683    0.3105    3.8243 H       1  UNL11       0.0618
     33 H           0.3245    0.2378    2.0352 H       1  UNL11       0.0624
     34 H          -0.9376    0.7831    1.9155 H       1  UNL11       0.0625
     35 H          -1.3475    1.1970    4.3292 H       1  UNL11       0.0618
     36 H           0.4962    0.9405    5.8648 H       1  UNL11       0.0624
     37 H           2.6769    0.3956    6.3243 H       1  UNL11       0.0624
     38 H           4.9018   -0.3351    5.5652 H       1  UNL11       0.0618
     39 H           5.3438   -0.7102    3.2148 H       1  UNL11       0.0618
     40 H           3.5274   -0.4106    1.4744 H       1  UNL11       0.0624
@<TRIPOS>BOND
     1     1     2    2
     2     2     3   am
     3     2    16    1
     4     3     4    1
     5     3    26    1
     6     4     5    1
     7     4    27    1
     8     4    28    1
     9     5     6    2
    10     6     7    1
    11     7     8   am
    12     7    29    1
    13     8     9    2
    14     8    10    1
    15    10    11   ar
    16    11    12   ar
    17    11    30    1
    18    12    13   ar
    19    12    31    1
    20    13    14   ar
    21    13    32    1
    22    14    15   ar
    23    14    33    1
    24    15     5    1
    25    15    10   ar
    26    16    17   ar
    27    17    18   ar
    28    17    34    1
    29    18    19   ar
    30    18    35    1
    31    19    20   ar
    32    19    36    1
    33    20    21   ar
    34    21    22   ar
    35    21    37    1
    36    22    23   ar
    37    22    38    1
    38    23    24   ar
    39    23    39    1
    40    24    25   ar
    41    24    40    1
    42    25    16   ar
    43    25    20   ar
@<TRIPOS>MOLECULE
*****
 40 43 0 0 0
SMALL
GASTEIGER

@<TRIPOS>ATOM
      1 O           2.1778    0.3521    0.0198 O.2     1  UNL11      -0.2702
      2 C           1.0650    0.0856    0.6898 C.2     1  UNL11       0.2450
      3 N           0.0185   -0.3897   -0.1984 N.am    1  UNL11      -0.3055
      4 C          -1.1740   -0.6558    0.5335 C.3     1  UNL11       0.0605
      5 C          -1.6658   -1.8318    1.1804 C.2     1  UNL11       0.1319
      6 N          -2.4343   -2.7618    0.6148 N.2     1  UNL11      -0.0060
      7 N          -2.5432   -3.9771    1.1230 N.am    1  UNL11      -0.0355
      8 C          -1.8971   -4.3655    2.2375 C.2     1  UNL11       0.4383
      9 O          -2.0196   -5.5293    2.6712 O.2     1  UNL11      -0.2116
     10 C          -1.0837   -3.4769    2.9105 C.ar    1  UNL11       0.1005
     11 C          -0.4807   -3.8258    4.1150 C.ar    1  UNL11      -0.0441
     12 C           0.2352   -2.8367    4.7696 C.ar    1  UNL11      -0.0608
     13 C           0.3272   -1.5790    4.2118 C.ar    1  UNL11      -0.0611
     14 C          -0.2657   -1.2450    3.0172 C.ar    1  UNL11      -0.0517
     15 C          -0.9818   -2.2249    2.3698 C.ar    1  UNL11       0.0205
     16 C           1.1408    0.2834    2.0778 C.ar    1  UNL11       0.0444
     17 C          -0.1229   -0.0509    2.7276 C.ar    1  UNL11      -0.0490
     18 C          -0.3176    0.0238    4.0538 C.ar    1  UNL11      -0.0605
     19 C           0.7193    0.4252    4.8589 C.ar    1  UNL11      -0.0540
     20 C           1.9164    0.7409    4.2790 C.ar    1  UNL11      -0.0172
     21 C           2.9244    1.0929    5.1317 C.ar    1  UNL11      -0.0540
     22 C           4.1620    1.3888    4.6514 C.ar    1  UNL11      -0.0612
     23 C           4.3486    1.3185    3.2672 C.ar    1  UNL11      -0.0611
     24 C           3.4014    0.9832    2.3597 C.ar    1  UNL11      -0.0533
     25 C           2.1326    0.6792    2.9014 C.ar    1  UNL11      -0.0058
     26 H           0.2575   -0.4347   -1.1816 H       1  UNL11       0.1494
     27 H          -1.0362    0.0973    1.4565 H       1  UNL11       0.0529
     28 H          -2.0588   -0.0682    0.0355 H       1  UNL11       0.0529
     29 H          -3.1224   -4.6979    0.6684 H       1  UNL11       0.4829
     30 H          -0.5451   -4.8039    4.5252 H       1  UNL11       0.0627
     31 H           0.7310   -3.0061    5.7423 H       1  UNL11       0.0618
     32 H           0.8759   -0.7602    4.7077 H       1  UNL11       0.0618
     33 H          -0.2153   -0.2731    2.5911 H       1  UNL11       0.0624
     34 H          -0.9078   -0.3481    2.0751 H       1  UNL11       0.0625
     35 H          -1.2759   -0.2209    4.5274 H       1  UNL11       0.0618
     36 H           0.5582    0.4889    5.9258 H       1  UNL11       0.0624
     37 H           2.7413    1.1315    6.2159 H       1  UNL11       0.0624
     38 H           4.9592    1.6466    5.2796 H       1  UNL11       0.0618
     39 H           5.3400    1.5686    2.8902 H       1  UNL11       0.0618
     40 H           3.4910    0.9115    1.2880 H       1  UNL11       0.0624
@<TRIPOS>BOND
     1     1     2    2
     2     2     3   am
     3     2    16    1
     4     3     4    1
     5     3    26    1
     6     4     5    1
     7     4    27    1
     8     4    28    1
     9     5     6    2
    10     6     7    1
    11     7     8   am
    12     7    29    1
    13     8     9    2
    14     8    10    1
    15    10    11   ar
    16    11    12   ar
    17    11    30    1
    18    12    13   ar
    19    12    31    1
    20    13    14   ar
    21    13    32    1
    22    14    15   ar
    23    14    33    1
    24    15     5    1
    25    15    10   ar
    26    16    17   ar
    27    17    18   ar
    28    17    34    1
    29    18    19   ar
    30    18    35    1
    31    19    20   ar
    32    19    36    1
    33    20    21   ar
    34    21    22   ar
    35    21    37    1
    36    22    23   ar
    37    22    38    1
    38    23    24   ar
    39    23    39    1
    40    24    25   ar
    41    24    40    1
    42    25    16   ar
    43    25    20   ar
@<TRIPOS>MOLECULE
*****
 40 43 0 0 0
SMALL
GASTEIGER

@<TRIPOS>ATOM
      1 O           2.1778    0.3521    0.0198 O.2     1  UNL11      -0.2702
      2 C           1.0650    0.0856    0.6898 C.2     1  UNL11       0.2450
      3 N           0.0185   -0.3897   -0.1984 N.am    1  UNL11      -0.3055
      4 C          -1.1740   -0.6558    0.5335 C.3     1  UNL11       0.0605
      5 C          -2.0230    0.1754    1.3282 C.2     1  UNL11       0.1319
      6 N          -1.6461    0.8571    2.4092 N.2     1  UNL11      -0.0060
      7 N          -2.3513    1.8757    2.8698 N.am    1  UNL11      -0.0355
      8 C          -3.4911    2.2980    2.2927 C.2     1  UNL11       0.4383
      9 O          -4.1149    3.2748    2.7556 O.2     1  UNL11      -0.2116
     10 C          -3.9791    1.6547    1.1737 C.ar    1  UNL11       0.1005
     11 C          -5.2027    2.0125    0.6159 C.ar    1  UNL11      -0.0441
     12 C          -5.6594    1.2451   -0.4433 C.ar    1  UNL11      -0.0608
     13 C          -4.8989    0.1885   -0.8976 C.ar    1  UNL11      -0.0611
     14 C          -3.6872   -0.1535   -0.3453 C.ar    1  UNL11      -0.0517
     15 C          -3.2360    0.6042    0.7104 C.ar    1  UNL11       0.0205
     16 C           1.1408    0.2834    2.0778 C.ar    1  UNL11       0.0444
     17 C          -0.1554    0.6703    2.6266 C.ar    1  UNL11      -0.0490
     18 C          -0.3704    0.8969    3.9322 C.ar    1  UNL11      -0.0605
     19 C           0.6711    0.7527    4.8148 C.ar    1  UNL11      -0.0540
     20 C           1.8962    0.3872    4.3305 C.ar    1  UNL11      -0.0172
     21 C           2.8845    0.2174    5.2586 C.ar    1  UNL11      -0.0540
     22 C           4.1277   -0.1810    4.8770 C.ar    1  UNL11      -0.0612
     23 C           4.3417   -0.4026    3.5129 C.ar    1  UNL11      -0.0611
     24 C           3.4176   -0.2521    2.5349 C.ar    1  UNL11      -0.0533
     25 C           2.1395    0.1582    2.9753 C.ar    1  UNL11      -0.0058
     26 H           0.2575   -0.4347   -1.1816 H       1  UNL11       0.1494
     27 H          -1.9079   -0.9830   -0.3566 H       1  UNL11       0.0529
     28 H          -1.0897   -1.7233    1.0127 H       1  UNL11       0.0529
     29 H          -2.0426    2.4121    3.6937 H       1  UNL11       0.4829
     30 H          -5.7706    2.8401    0.9647 H       1  UNL11       0.0627
     31 H          -6.6286    1.4329   -0.9393 H       1  UNL11       0.0618
     32 H          -5.2332   -0.4551   -1.7291 H       1  UNL11       0.0618
     33 H          -3.1051   -0.9778   -0.6775 H       1  UNL11       0.0624
     34 H          -0.9376    0.7831    1.9155 H       1  UNL11       0.0625
     35 H          -1.3475    1.1970    4.3292 H       1  UNL11       0.0618
     36 H           0.4962    0.9405    5.8648 H       1  UNL11       0.0624
     37 H           2.6769    0.3956    6.3243 H       1  UNL11       0.0624
     38 H           4.9018   -0.3351    5.5652 H       1  UNL11       0.0618
     39 H           5.3438   -0.7102    3.2148 H       1  UNL11       0.0618
     40 H           3.5274   -0.4106    1.4744 H       1  UNL11       0.0624
@<TRIPOS>BOND
     1     1     2    2
     2     2     3   am
     3     2    16    1
     4     3     4    1
     5     3    26    1
     6     4     5    1
     7     4    27    1
     8     4    28    1
     9     5     6    2
    10     6     7    1
    11     7     8   am
    12     7    29    1
    13     8     9    2
    14     8    10    1
    15    10    11   ar
    16    11    12   ar
    17    11    30    1
    18    12    13   ar
    19    12    31    1
    20    13    14   ar
    21    13    32    1
    22    14    15   ar
    23    14    33    1
    24    15     5    1
    25    15    10   ar
    26    16    17   ar
    27    17    18   ar
    28    17    34    1
    29    18    19   ar
    30    18    35    1
    31    19    20   ar
    32    19    36    1
    33    20    21   ar
    34    21    22   ar
    35    21    37    1
    36    22    23   ar
    37    22    38    1
    38    23    24   ar
    39    23    39    1
    40    24    25   ar
    41    24    40    1
    42    25    16   ar
    43    25    20   ar
@<TRIPOS>MOLECULE
*****
 40 43 0 0 0
SMALL
GASTEIGER

@<TRIPOS>ATOM
      1 O           2.1778    0.3521    0.0198 O.2     1  UNL11      -0.2702
      2 C           1.0650    0.0856    0.6898 C.2     1  UNL11       0.2450
      3 N           0.0185   -0.3897   -0.1984 N.am    1  UNL11      -0.3055
      4 C          -1.1740   -0.6558    0.5335 C.3     1  UNL11       0.0605
      5 C          -1.4616   -1.5400    1.6193 C.2     1  UNL11       0.1319
      6 N          -0.8875   -1.5016    2.8210 N.2     1  UNL11      -0.0060
      7 N          -1.4409   -2.0765    3.8747 N.am    1  UNL11      -0.0355
      8 C          -2.6110   -2.7385    3.8177 C.2     1  UNL11       0.4383
      9 O          -3.1019   -3.2524    4.8435 O.2     1  UNL11      -0.2116
     10 C          -3.2849   -2.8496    2.6187 C.ar    1  UNL11       0.1005
     11 C          -4.4467   -3.6083    2.5156 C.ar    1  UNL11      -0.0441
     12 C          -4.9979   -3.7458    1.2519 C.ar    1  UNL11      -0.0608
     13 C          -4.3936   -3.1339    0.1742 C.ar    1  UNL11      -0.0611
     14 C          -3.2495   -2.3797    0.2864 C.ar    1  UNL11      -0.0517
     15 C          -2.6984   -2.2478    1.5397 C.ar    1  UNL11       0.0205
     16 C           1.1408    0.2834    2.0778 C.ar    1  UNL11       0.0444
     17 C           0.2550   -0.6326    2.7899 C.ar    1  UNL11      -0.0490
     18 C           0.1510   -0.6742    4.1277 C.ar    1  UNL11      -0.0605
     19 C           0.9184    0.1769    4.8834 C.ar    1  UNL11      -0.0540
     20 C           1.7607    1.0436    4.2443 C.ar    1  UNL11      -0.0172
     21 C           2.5308    1.8371    5.0471 C.ar    1  UNL11      -0.0540
     22 C           3.4256    2.7056    4.5040 C.ar    1  UNL11      -0.0612
     23 C           3.5160    2.7474    3.1090 C.ar    1  UNL11      -0.0611
     24 C           2.7864    1.9987    2.2485 C.ar    1  UNL11      -0.0533
     25 C           1.8732    1.1074    2.8545 C.ar    1  UNL11      -0.0058
     26 H           0.2575   -0.4347   -1.1816 H       1  UNL11       0.1494
     27 H          -1.3708    0.4187    1.0282 H       1  UNL11       0.0529
     28 H          -2.0848   -0.6122   -0.2046 H       1  UNL11       0.0529
     29 H          -1.0021   -2.0244    4.8055 H       1  UNL11       0.4829
     30 H          -4.9119   -4.0603    3.3572 H       1  UNL11       0.0627
     31 H          -5.9053   -4.3464    1.0610 H       1  UNL11       0.0618
     32 H          -4.7928   -3.2302   -0.8500 H       1  UNL11       0.0618
     33 H          -2.7678   -1.9214   -0.5422 H       1  UNL11       0.0624
     34 H          -0.3324   -1.2708    2.1752 H       1  UNL11       0.0625
     35 H          -0.5265   -1.3611    4.6490 H       1  UNL11       0.0618
     36 H           0.8291    0.1445    5.9601 H       1  UNL11       0.0624
     37 H           2.4359    1.7719    6.1413 H       1  UNL11       0.0624
     38 H           4.0411    3.3155    5.0919 H       1  UNL11       0.0618
     39 H           4.2270    3.4544    2.6822 H       1  UNL11       0.0618
     40 H           2.8172    1.9891    1.1712 H       1  UNL11       0.0624
@<TRIPOS>BOND
     1     1     2    2
     2     2     3   am
     3     2    16    1
     4     3     4    1
     5     3    26    1
     6     4     5    1
     7     4    27    1
     8     4    28    1
     9     5     6    2
    10     6     7    1
    11     7     8   am
    12     7    29    1
    13     8     9    2
    14     8    10    1
    15    10    11   ar
    16    11    12   ar
    17    11    30    1
    18    12    13   ar
    19    12    31    1
    20    13    14   ar
    21    13    32    1
    22    14    15   ar
    23    14    33    1
    24    15     5    1
    25    15    10   ar
    26    16    17   ar
    27    17    18   ar
    28    17    34    1
    29    18    19   ar
    30    18    35    1
    31    19    20   ar
    32    19    36    1
    33    20    21   ar
    34    21    22   ar
    35    21    37    1
    36    22    23   ar
    37    22    38    1
    38    23    24   ar
    39    23    39    1
    40    24    25   ar
    41    24    40    1
    42    25    16   ar
    43    25    20   ar
@<TRIPOS>MOLECULE
*****
 40 43 0 0 0
SMALL
GASTEIGER

@<TRIPOS>ATOM
      1 O           2.1778    0.3521    0.0198 O.2     1  UNL11      -0.2702
      2 C           1.0650    0.0856    0.6898 C.2     1  UNL11       0.2450
      3 N           0.0185   -0.3897   -0.1984 N.am    1  UNL11      -0.3055
      4 C          -1.1740   -0.6558    0.5335 C.3     1  UNL11       0.0605
      5 C          -1.9463   -1.8443    0.7190 C.2     1  UNL11       0.1319
      6 N          -1.5078   -2.9727    1.2754 N.2     1  UNL11      -0.0060
      7 N          -2.3401   -3.8815    1.7533 N.am    1  UNL11      -0.0355
      8 C          -3.6778   -3.7419    1.7146 C.2     1  UNL11       0.4383
      9 O          -4.4235   -4.6211    2.1927 O.2     1  UNL11      -0.2116
     10 C          -4.2394   -2.6158    1.1484 C.ar    1  UNL11       0.1005
     11 C          -5.6187   -2.4923    1.0119 C.ar    1  UNL11      -0.0441
     12 C          -6.0865   -1.3744    0.3404 C.ar    1  UNL11      -0.0608
     13 C          -5.1902   -0.4468   -0.1467 C.ar    1  UNL11      -0.0611
     14 C          -3.8289   -0.5731   -0.0008 C.ar    1  UNL11      -0.0517
     15 C          -3.3634   -1.6858    0.6605 C.ar    1  UNL11       0.0205
     16 C           1.1408    0.2834    2.0778 C.ar    1  UNL11       0.0444
     17 C           0.2550   -0.6326    2.7899 C.ar    1  UNL11      -0.0490
     18 C           0.1510   -0.6742    4.1277 C.ar    1  UNL11      -0.0605
     19 C           0.9184    0.1769    4.8834 C.ar    1  UNL11      -0.0540
     20 C           1.7607    1.0436    4.2443 C.ar    1  UNL11      -0.0172
     21 C           2.5308    1.8371    5.0471 C.ar    1  UNL11      -0.0540
     22 C           3.4256    2.7056    4.5040 C.ar    1  UNL11      -0.0612
     23 C           3.5160    2.7474    3.1090 C.ar    1  UNL11      -0.0611
     24 C           2.7864    1.9987    2.2485 C.ar    1  UNL11      -0.0533
     25 C           1.8732    1.1074    2.8545 C.ar    1  UNL11      -0.0058
     26 H           0.2575   -0.4347   -1.1816 H       1  UNL11       0.1494
     27 H          -0.8014   -0.4239    1.6495 H       1  UNL11       0.0529
     28 H          -1.8808    0.2769    0.4511 H       1  UNL11       0.0529
     29 H          -1.9937   -4.7421    2.2019 H       1  UNL11       0.4829
     30 H          -6.2992   -3.2060    1.4073 H       1  UNL11       0.0627
     31 H          -7.1617   -1.1960    0.1593 H       1  UNL11       0.0618
     32 H          -5.5211    0.4494   -0.6988 H       1  UNL11       0.0618
     33 H          -3.1317    0.1276   -0.3901 H       1  UNL11       0.0624
     34 H          -0.3324   -1.2708    2.1752 H       1  UNL11       0.0625
     35 H          -0.5265   -1.3611    4.6490 H       1  UNL11       0.0618
     36 H           0.8291    0.1445    5.9601 H       1  UNL11       0.0624
     37 H           2.4359    1.7719    6.1413 H       1  UNL11       0.0624
     38 H           4.0411    3.3155    5.0919 H       1  UNL11       0.0618
     39 H           4.2270    3.4544    2.6822 H       1  UNL11       0.0618
     40 H           2.8172    1.9891    1.1712 H       1  UNL11       0.0624
@<TRIPOS>BOND
     1     1     2    2
     2     2     3   am
     3     2    16    1
     4     3     4    1
     5     3    26    1
     6     4     5    1
     7     4    27    1
     8     4    28    1
     9     5     6    2
    10     6     7    1
    11     7     8   am
    12     7    29    1
    13     8     9    2
    14     8    10    1
    15    10    11   ar
    16    11    12   ar
    17    11    30    1
    18    12    13   ar
    19    12    31    1
    20    13    14   ar
    21    13    32    1
    22    14    15   ar
    23    14    33    1
    24    15     5    1
    25    15    10   ar
    26    16    17   ar
    27    17    18   ar
    28    17    34    1
    29    18    19   ar
    30    18    35    1
    31    19    20   ar
    32    19    36    1
    33    20    21   ar
    34    21    22   ar
    35    21    37    1
    36    22    23   ar
    37    22    38    1
    38    23    24   ar
    39    23    39    1
    40    24    25   ar
    41    24    40    1
    42    25    16   ar
    43    25    20   ar
@<TRIPOS>MOLECULE
*****
 40 43 0 0 0
SMALL
GASTEIGER

@<TRIPOS>ATOM
      1 O           2.1778    0.3521    0.0198 O.2     1  UNL11      -0.2702
      2 C           1.0650    0.0856    0.6898 C.2     1  UNL11       0.2450
      3 N           0.0185   -0.3897   -0.1984 N.am    1  UNL11      -0.3055
      4 C          -1.1740   -0.6558    0.5335 C.3     1  UNL11       0.0605
      5 C          -2.4586   -1.1431    0.1390 C.2     1  UNL11       0.1319
      6 N          -3.0233   -0.9583   -1.0535 N.2     1  UNL11      -0.0060
      7 N          -4.0111   -1.7252   -1.4815 N.am    1  UNL11      -0.0355
      8 C          -4.5190   -2.7382   -0.7560 C.2     1  UNL11       0.4383
      9 O          -5.4425   -3.4450   -1.2091 O.2     1  UNL11      -0.2116
     10 C          -4.0156   -3.0097    0.4998 C.ar    1  UNL11       0.1005
     11 C          -4.5865   -3.9897    1.3059 C.ar    1  UNL11      -0.0441
     12 C          -4.0800   -4.1226    2.5886 C.ar    1  UNL11      -0.0608
     13 C          -3.0501   -3.3048    3.0031 C.ar    1  UNL11      -0.0611
     14 C          -2.4868   -2.3438    2.1972 C.ar    1  UNL11      -0.0517
     15 C          -2.9933   -2.2072    0.9256 C.ar    1  UNL11       0.0205
     16 C           1.1408    0.2834    2.0778 C.ar    1  UNL11       0.0444
     17 C           2.4975    0.0613    2.5686 C.ar    1  UNL11      -0.0490
     18 C           2.8545    0.2075    3.8544 C.ar    1  UNL11      -0.0605
     19 C           1.9079    0.5956    4.7697 C.ar    1  UNL11      -0.0540
     20 C           0.6292    0.8151    4.3387 C.ar    1  UNL11      -0.0172
     21 C          -0.2606    1.2403    5.2846 C.ar    1  UNL11      -0.0540
     22 C          -1.5474    1.5200    4.9445 C.ar    1  UNL11      -0.0612
     23 C          -1.9093    1.3526    3.6041 C.ar    1  UNL11      -0.0611
     24 C          -1.0893    0.9322    2.6122 C.ar    1  UNL11      -0.0533
     25 C           0.2387    0.6573    3.0079 C.ar    1  UNL11      -0.0058
     26 H           0.2575   -0.4347   -1.1816 H       1  UNL11       0.1494
     27 H          -0.7914   -1.5254    1.2653 H       1  UNL11       0.0529
     28 H          -1.2897    0.1578    1.3707 H       1  UNL11       0.0529
     29 H          -4.4287   -1.5904   -2.4138 H       1  UNL11       0.4829
     30 H          -5.3683   -4.6250    0.9680 H       1  UNL11       0.0627
     31 H          -4.4799   -4.8545    3.3131 H       1  UNL11       0.0618
     32 H          -2.6281   -3.3693    4.0205 H       1  UNL11       0.0618
     33 H          -1.7064   -1.6974    2.5161 H       1  UNL11       0.0624
     34 H           3.2036   -0.2480    1.8363 H       1  UNL11       0.0625
     35 H           3.8758    0.0273    4.2107 H       1  UNL11       0.0618
     36 H           2.1971    0.7080    5.8051 H       1  UNL11       0.0624
     37 H           0.0627    1.3661    6.3287 H       1  UNL11       0.0624
     38 H          -2.2489    1.8625    5.6424 H       1  UNL11       0.0618
     39 H          -2.9452    1.5678    3.3427 H       1  UNL11       0.0618
     40 H          -1.3141    0.7886    1.5679 H       1  UNL11       0.0624
@<TRIPOS>BOND
     1     1     2    2
     2     2     3   am
     3     2    16    1
     4     3     4    1
     5     3    26    1
     6     4     5    1
     7     4    27    1
     8     4    28    1
     9     5     6    2
    10     6     7    1
    11     7     8   am
    12     7    29    1
    13     8     9    2
    14     8    10    1
    15    10    11   ar
    16    11    12   ar
    17    11    30    1
    18    12    13   ar
    19    12    31    1
    20    13    14   ar
    21    13    32    1
    22    14    15   ar
    23    14    33    1
    24    15     5    1
    25    15    10   ar
    26    16    17   ar
    27    17    18   ar
    28    17    34    1
    29    18    19   ar
    30    18    35    1
    31    19    20   ar
    32    19    36    1
    33    20    21   ar
    34    21    22   ar
    35    21    37    1
    36    22    23   ar
    37    22    38    1
    38    23    24   ar
    39    23    39    1
    40    24    25   ar
    41    24    40    1
    42    25    16   ar
    43    25    20   ar
@<TRIPOS>MOLECULE
*****
 40 43 0 0 0
SMALL
GASTEIGER

@<TRIPOS>ATOM
      1 O           2.1778    0.3521    0.0198 O.2     1  UNL11      -0.2702
      2 C           1.0650    0.0856    0.6898 C.2     1  UNL11       0.2450
      3 N           0.0185   -0.3897   -0.1984 N.am    1  UNL11      -0.3055
      4 C          -1.1740   -0.6558    0.5335 C.3     1  UNL11       0.0605
      5 C          -2.4586   -1.1431    0.1390 C.2     1  UNL11       0.1319
      6 N          -2.8140   -1.4701   -1.1027 N.2     1  UNL11      -0.0060
      7 N          -3.8541   -2.2486   -1.3461 N.am    1  UNL11      -0.0355
      8 C          -4.6269   -2.7640   -0.3727 C.2     1  UNL11       0.4383
      9 O          -5.5903   -3.5070   -0.6512 O.2     1  UNL11      -0.2116
     10 C          -4.3552   -2.4789    0.9498 C.ar    1  UNL11       0.1005
     11 C          -5.1945   -2.9222    1.9672 C.ar    1  UNL11      -0.0441
     12 C          -4.8989   -2.5025    3.2541 C.ar    1  UNL11      -0.0608
     13 C          -3.8070   -1.6893    3.4721 C.ar    1  UNL11      -0.0611
     14 C          -2.9784   -1.2619    2.4616 C.ar    1  UNL11      -0.0517
     15 C          -3.2749   -1.6732    1.1829 C.ar    1  UNL11       0.0205
     16 C           1.1408    0.2834    2.0778 C.ar    1  UNL11       0.0444
     17 C          -0.1554    0.6703    2.6266 C.ar    1  UNL11      -0.0490
     18 C          -0.3704    0.8969    3.9322 C.ar    1  UNL11      -0.0605
     19 C           0.6711    0.7527    4.8148 C.ar    1  UNL11      -0.0540
     20 C           1.8962    0.3872    4.3305 C.ar    1  UNL11      -0.0172
     21 C           2.8845    0.2174    5.2586 C.ar    1  UNL11      -0.0540
     22 C           4.1277   -0.1810    4.8770 C.ar    1  UNL11      -0.0612
     23 C           4.3417   -0.4026    3.5129 C.ar    1  UNL11      -0.0611
     24 C           3.4176   -0.2521    2.5349 C.ar    1  UNL11      -0.0533
     25 C           2.1395    0.1582    2.9753 C.ar    1  UNL11      -0.0058
     26 H           0.2575   -0.4347   -1.1816 H       1  UNL11       0.1494
     27 H          -0.7914   -1.5254    1.2653 H       1  UNL11       0.0529
     28 H          -1.2897    0.1578    1.3707 H       1  UNL11       0.0529
     29 H          -4.1104   -2.5150   -2.3079 H       1  UNL11       0.4829
     30 H          -6.0228   -3.5630    1.7875 H       1  UNL11       0.0627
     31 H          -5.5167   -2.7802    4.1269 H       1  UNL11       0.0618
     32 H          -3.5455   -1.3222    4.4792 H       1  UNL11       0.0618
     33 H          -2.1469   -0.6198    2.6195 H       1  UNL11       0.0624
     34 H          -0.9376    0.7831    1.9155 H       1  UNL11       0.0625
     35 H          -1.3475    1.1970    4.3292 H       1  UNL11       0.0618
     36 H           0.4962    0.9405    5.8648 H       1  UNL11       0.0624
     37 H           2.6769    0.3956    6.3243 H       1  UNL11       0.0624
     38 H           4.9018   -0.3351    5.5652 H       1  UNL11       0.0618
     39 H           5.3438   -0.7102    3.2148 H       1  UNL11       0.0618
     40 H           3.5274   -0.4106    1.4744 H       1  UNL11       0.0624
@<TRIPOS>BOND
     1     1     2    2
     2     2     3   am
     3     2    16    1
     4     3     4    1
     5     3    26    1
     6     4     5    1
     7     4    27    1
     8     4    28    1
     9     5     6    2
    10     6     7    1
    11     7     8   am
    12     7    29    1
    13     8     9    2
    14     8    10    1
    15    10    11   ar
    16    11    12   ar
    17    11    30    1
    18    12    13   ar
    19    12    31    1
    20    13    14   ar
    21    13    32    1
    22    14    15   ar
    23    14    33    1
    24    15     5    1
    25    15    10   ar
    26    16    17   ar
    27    17    18   ar
    28    17    34    1
    29    18    19   ar
    30    18    35    1
    31    19    20   ar
    32    19    36    1
    33    20    21   ar
    34    21    22   ar
    35    21    37    1
    36    22    23   ar
    37    22    38    1
    38    23    24   ar
    39    23    39    1
    40    24    25   ar
    41    24    40    1
    42    25    16   ar
    43    25    20   ar
@<TRIPOS>MOLECULE
*****
 40 43 0 0 0
SMALL
GASTEIGER

@<TRIPOS>ATOM
      1 O           2.1778    0.3521    0.0198 O.2     1  UNL11      -0.2702
      2 C           1.0650    0.0856    0.6898 C.2     1  UNL11       0.2450
      3 N           0.0185   -0.3897   -0.1984 N.am    1  UNL11      -0.3055
      4 C          -1.1740   -0.6558    0.5335 C.3     1  UNL11       0.0605
      5 C          -2.5574   -0.5881    0.1799 C.2     1  UNL11       0.1319
      6 N          -3.0861    0.2397   -0.7203 N.2     1  UNL11      -0.0060
      7 N          -4.2669    0.0094   -1.2677 N.am    1  UNL11      -0.0355
      8 C          -5.0192   -1.0635   -0.9621 C.2     1  UNL11       0.4383
      9 O          -6.1220   -1.2464   -1.5169 O.2     1  UNL11      -0.2116
     10 C          -4.5718   -1.9793   -0.0319 C.ar    1  UNL11       0.1005
     11 C          -5.3721   -3.0446    0.3696 C.ar    1  UNL11      -0.0441
     12 C          -4.8809   -3.8537    1.3813 C.ar    1  UNL11      -0.0608
     13 C          -3.6457   -3.5838    1.9313 C.ar    1  UNL11      -0.0611
     14 C          -2.8582   -2.5332    1.5233 C.ar    1  UNL11      -0.0517
     15 C          -3.3479   -1.7258    0.5230 C.ar    1  UNL11       0.0205
     16 C           1.1408    0.2834    2.0778 C.ar    1  UNL11       0.0444
     17 C          -0.1554    0.6703    2.6266 C.ar    1  UNL11      -0.0490
     18 C          -0.3704    0.8969    3.9322 C.ar    1  UNL11      -0.0605
     19 C           0.6711    0.7527    4.8148 C.ar    1  UNL11      -0.0540
     20 C           1.8962    0.3872    4.3305 C.ar    1  UNL11      -0.0172
     21 C           2.8845    0.2174    5.2586 C.ar    1  UNL11      -0.0540
     22 C           4.1277   -0.1810    4.8770 C.ar    1  UNL11      -0.0612
     23 C           4.3417   -0.4026    3.5129 C.ar    1  UNL11      -0.0611
     24 C           3.4176   -0.2521    2.5349 C.ar    1  UNL11      -0.0533
     25 C           2.1395    0.1582    2.9753 C.ar    1  UNL11      -0.0058
     26 H           0.2575   -0.4347   -1.1816 H       1  UNL11       0.1494
     27 H          -1.0325   -1.8241    0.7640 H       1  UNL11       0.0529
     28 H          -1.0218   -0.2998    1.6409 H       1  UNL11       0.0529
     29 H          -4.6602    0.6425   -1.9792 H       1  UNL11       0.4829
     30 H          -6.3147   -3.2516   -0.0748 H       1  UNL11       0.0627
     31 H          -5.4491   -4.7102    1.7866 H       1  UNL11       0.0618
     32 H          -3.2250   -4.1953    2.7477 H       1  UNL11       0.0618
     33 H          -1.9142   -2.3078    1.9555 H       1  UNL11       0.0624
     34 H          -0.9376    0.7831    1.9155 H       1  UNL11       0.0625
     35 H          -1.3475    1.1970    4.3292 H       1  UNL11       0.0618
     36 H           0.4962    0.9405    5.8648 H       1  UNL11       0.0624
     37 H           2.6769    0.3956    6.3243 H       1  UNL11       0.0624
     38 H           4.9018   -0.3351    5.5652 H       1  UNL11       0.0618
     39 H           5.3438   -0.7102    3.2148 H       1  UNL11       0.0618
     40 H           3.5274   -0.4106    1.4744 H       1  UNL11       0.0624
@<TRIPOS>BOND
     1     1     2    2
     2     2     3   am
     3     2    16    1
     4     3     4    1
     5     3    26    1
     6     4     5    1
     7     4    27    1
     8     4    28    1
     9     5     6    2
    10     6     7    1
    11     7     8   am
    12     7    29    1
    13     8     9    2
    14     8    10    1
    15    10    11   ar
    16    11    12   ar
    17    11    30    1
    18    12    13   ar
    19    12    31    1
    20    13    14   ar
    21    13    32    1
    22    14    15   ar
    23    14    33    1
    24    15     5    1
    25    15    10   ar
    26    16    17   ar
    27    17    18   ar
    28    17    34    1
    29    18    19   ar
    30    18    35    1
    31    19    20   ar
    32    19    36    1
    33    20    21   ar
    34    21    22   ar
    35    21    37    1
    36    22    23   ar
    37    22    38    1
    38    23    24   ar
    39    23    39    1
    40    24    25   ar
    41    24    40    1
    42    25    16   ar
    43    25    20   ar
@<TRIPOS>MOLECULE
*****
 40 43 0 0 0
SMALL
GASTEIGER

@<TRIPOS>ATOM
      1 O           2.1778    0.3521    0.0198 O.2     1  UNL11      -0.2702
      2 C           1.0650    0.0856    0.6898 C.2     1  UNL11       0.2450
      3 N           0.0185   -0.3897   -0.1984 N.am    1  UNL11      -0.3055
      4 C          -1.1740   -0.6558    0.5335 C.3     1  UNL11       0.0605
      5 C          -1.9463   -1.8443    0.7190 C.2     1  UNL11       0.1319
      6 N          -1.5078   -2.9727    1.2754 N.2     1  UNL11      -0.0060
      7 N          -2.3401   -3.8815    1.7533 N.am    1  UNL11      -0.0355
      8 C          -3.6778   -3.7419    1.7146 C.2     1  UNL11       0.4383
      9 O          -4.4235   -4.6211    2.1927 O.2     1  UNL11      -0.2116
     10 C          -4.2394   -2.6158    1.1484 C.ar    1  UNL11       0.1005
     11 C          -5.6187   -2.4923    1.0119 C.ar    1  UNL11      -0.0441
     12 C          -6.0865   -1.3744    0.3404 C.ar    1  UNL11      -0.0608
     13 C          -5.1902   -0.4468   -0.1467 C.ar    1  UNL11      -0.0611
     14 C          -3.8289   -0.5731   -0.0008 C.ar    1  UNL11      -0.0517
     15 C          -3.3634   -1.6858    0.6605 C.ar    1  UNL11       0.0205
     16 C           1.1408    0.2834    2.0778 C.ar    1  UNL11       0.0444
     17 C           2.0958    1.3367    2.4087 C.ar    1  UNL11      -0.0490
     18 C           2.3441    1.7455    3.6630 C.ar    1  UNL11      -0.0605
     19 C           1.6658    1.1593    4.7025 C.ar    1  UNL11      -0.0540
     20 C           0.7618    0.1725    4.4230 C.ar    1  UNL11      -0.0172
     21 C           0.0857   -0.3452    5.4917 C.ar    1  UNL11      -0.0540
     22 C          -0.8600   -1.3056    5.3097 C.ar    1  UNL11      -0.0612
     23 C          -1.1011   -1.7309    3.9994 C.ar    1  UNL11      -0.0611
     24 C          -0.4714   -1.2711    2.8925 C.ar    1  UNL11      -0.0533
     25 C           0.4995   -0.2719    3.1261 C.ar    1  UNL11      -0.0058
     26 H           0.2575   -0.4347   -1.1816 H       1  UNL11       0.1494
     27 H          -0.8014   -0.4239    1.6495 H       1  UNL11       0.0529
     28 H          -1.8808    0.2769    0.4511 H       1  UNL11       0.0529
     29 H          -1.9937   -4.7421    2.2019 H       1  UNL11       0.4829
     30 H          -6.2992   -3.2060    1.4073 H       1  UNL11       0.0627
     31 H          -7.1617   -1.1960    0.1593 H       1  UNL11       0.0618
     32 H          -5.5211    0.4494   -0.6988 H       1  UNL11       0.0618
     33 H          -3.1317    0.1276   -0.3901 H       1  UNL11       0.0624
     34 H           2.6112    1.7626    1.5821 H       1  UNL11       0.0625
     35 H           3.0721    2.5314    3.8977 H       1  UNL11       0.0618
     36 H           1.8713    1.4872    5.7118 H       1  UNL11       0.0624
     37 H           0.2985    0.0189    6.5079 H       1  UNL11       0.0624
     38 H          -1.4063   -1.7110    6.1058 H       1  UNL11       0.0618
     39 H          -1.8521   -2.5089    3.8640 H       1  UNL11       0.0618
     40 H          -0.6188   -1.5605    1.8647 H       1  UNL11       0.0624
@<TRIPOS>BOND
     1     1     2    2
     2     2     3   am
     3     2    16    1
     4     3     4    1
     5     3    26    1
     6     4     5    1
     7     4    27    1
     8     4    28    1
     9     5     6    2
    10     6     7    1
    11     7     8   am
    12     7    29    1
    13     8     9    2
    14     8    10    1
    15    10    11   ar
    16    11    12   ar
    17    11    30    1
    18    12    13   ar
    19    12    31    1
    20    13    14   ar
    21    13    32    1
    22    14    15   ar
    23    14    33    1
    24    15     5    1
    25    15    10   ar
    26    16    17   ar
    27    17    18   ar
    28    17    34    1
    29    18    19   ar
    30    18    35    1
    31    19    20   ar
    32    19    36    1
    33    20    21   ar
    34    21    22   ar
    35    21    37    1
    36    22    23   ar
    37    22    38    1
    38    23    24   ar
    39    23    39    1
    40    24    25   ar
    41    24    40    1
    42    25    16   ar
    43    25    20   ar
@<TRIPOS>MOLECULE
*****
 40 43 0 0 0
SMALL
GASTEIGER

@<TRIPOS>ATOM
      1 O           0.6381    0.1470    1.9437 O.2     1  UNL11      -0.2702
      2 C           1.0650    0.0856    0.6898 C.2     1  UNL11       0.2450
      3 N           0.0185   -0.3897   -0.1984 N.am    1  UNL11      -0.3055
      4 C          -1.1740   -0.6558    0.5335 C.3     1  UNL11       0.0605
      5 C          -2.2358   -1.5928    0.3386 C.2     1  UNL11       0.1319
      6 N          -3.0157   -1.6650   -0.7392 N.2     1  UNL11      -0.0060
      7 N          -3.7085   -2.7539   -1.0246 N.am    1  UNL11      -0.0355
      8 C          -3.6829   -3.8599   -0.2586 C.2     1  UNL11       0.4383
      9 O          -4.3430   -4.8700   -0.5773 O.2     1  UNL11      -0.2116
     10 C          -2.9170   -3.8888    0.8888 C.ar    1  UNL11       0.1005
     11 C          -2.9480   -4.9849    1.7455 C.ar    1  UNL11      -0.0441
     12 C          -2.2257   -4.8830    2.9234 C.ar    1  UNL11      -0.0608
     13 C          -1.5152   -3.7318    3.1901 C.ar    1  UNL11      -0.0611
     14 C          -1.4842   -2.6562    2.3343 C.ar    1  UNL11      -0.0517
     15 C          -2.2060   -2.7543    1.1675 C.ar    1  UNL11       0.0205
     16 C           2.3881    0.5095    0.4872 C.ar    1  UNL11       0.0444
     17 C           2.7711    1.5260    1.4624 C.ar    1  UNL11      -0.0490
     18 C           3.9906    2.0851    1.5110 C.ar    1  UNL11      -0.0605
     19 C           4.9446    1.6849    0.6088 C.ar    1  UNL11      -0.0540
     20 C           4.6163    0.7313   -0.3142 C.ar    1  UNL11      -0.0172
     21 C           5.6168    0.3411   -1.1591 C.ar    1  UNL11      -0.0540
     22 C           5.3965   -0.6282   -2.0874 C.ar    1  UNL11      -0.0612
     23 C           4.1187   -1.1944   -2.1353 C.ar    1  UNL11      -0.0611
     24 C           3.0770   -0.8594   -1.3380 C.ar    1  UNL11      -0.0533
     25 C           3.3504    0.1476   -0.3856 C.ar    1  UNL11      -0.0058
     26 H           0.2575   -0.4347   -1.1816 H       1  UNL11       0.1494
     27 H          -0.7120   -1.0165    1.5797 H       1  UNL11       0.0529
     28 H          -1.5999    0.3594    0.9387 H       1  UNL11       0.0529
     29 H          -4.2928   -2.8105   -1.8714 H       1  UNL11       0.4829
     30 H          -3.4857   -5.8730    1.5195 H       1  UNL11       0.0627
     31 H          -2.2047   -5.6881    3.6797 H       1  UNL11       0.0618
     32 H          -0.9388   -3.6055    4.1225 H       1  UNL11       0.0618
     33 H          -0.9548   -1.7589    2.5421 H       1  UNL11       0.0624
     34 H           2.0065    1.8207    2.1397 H       1  UNL11       0.0625
     35 H           4.2613    2.8554    2.2431 H       1  UNL11       0.0618
     36 H           5.9242    2.1402    0.6473 H       1  UNL11       0.0624
     37 H           6.6116    0.8056   -1.0875 H       1  UNL11       0.0624
     38 H           6.1464   -0.9602   -2.7385 H       1  UNL11       0.0618
     39 H           3.9477   -1.9620   -2.8899 H       1  UNL11       0.0618
     40 H           2.0776   -1.2628   -1.3305 H       1  UNL11       0.0624
@<TRIPOS>BOND
     1     1     2    2
     2     2     3   am
     3     2    16    1
     4     3     4    1
     5     3    26    1
     6     4     5    1
     7     4    27    1
     8     4    28    1
     9     5     6    2
    10     6     7    1
    11     7     8   am
    12     7    29    1
    13     8     9    2
    14     8    10    1
    15    10    11   ar
    16    11    12   ar
    17    11    30    1
    18    12    13   ar
    19    12    31    1
    20    13    14   ar
    21    13    32    1
    22    14    15   ar
    23    14    33    1
    24    15     5    1
    25    15    10   ar
    26    16    17   ar
    27    17    18   ar
    28    17    34    1
    29    18    19   ar
    30    18    35    1
    31    19    20   ar
    32    19    36    1
    33    20    21   ar
    34    21    22   ar
    35    21    37    1
    36    22    23   ar
    37    22    38    1
    38    23    24   ar
    39    23    39    1
    40    24    25   ar
    41    24    40    1
    42    25    16   ar
    43    25    20   ar
@<TRIPOS>MOLECULE
*****
 40 43 0 0 0
SMALL
GASTEIGER

@<TRIPOS>ATOM
      1 O           2.1778    0.3521    0.0198 O.2     1  UNL11      -0.2702
      2 C           1.0650    0.0856    0.6898 C.2     1  UNL11       0.2450
      3 N           0.0185   -0.3897   -0.1984 N.am    1  UNL11      -0.3055
      4 C          -1.1740   -0.6558    0.5335 C.3     1  UNL11       0.0605
      5 C          -1.7200   -0.0878    1.7262 C.2     1  UNL11       0.1319
      6 N          -1.1638    0.8878    2.4433 N.2     1  UNL11      -0.0060
      7 N          -1.8684    1.6141    3.2936 N.am    1  UNL11      -0.0355
      8 C          -3.1847    1.4272    3.5011 C.2     1  UNL11       0.4383
      9 O          -3.8111    2.1488    4.3039 O.2     1  UNL11      -0.2116
     10 C          -3.8581    0.4346    2.8190 C.ar    1  UNL11       0.1005
     11 C          -5.1960    0.1607    3.0857 C.ar    1  UNL11      -0.0441
     12 C          -5.7605   -0.9189    2.4260 C.ar    1  UNL11      -0.0608
     13 C          -4.9961   -1.6562    1.5466 C.ar    1  UNL11      -0.0611
     14 C          -3.6766   -1.3739    1.2834 C.ar    1  UNL11      -0.0517
     15 C          -3.1138   -0.3059    1.9426 C.ar    1  UNL11       0.0205
     16 C           1.1408    0.2834    2.0778 C.ar    1  UNL11       0.0444
     17 C           2.4665    0.7504    2.4720 C.ar    1  UNL11      -0.0490
     18 C           2.8041    1.0419    3.7382 C.ar    1  UNL11      -0.0605
     19 C           1.8618    0.9086    4.7276 C.ar    1  UNL11      -0.0540
     20 C           0.6098    0.4771    4.3879 C.ar    1  UNL11      -0.0172
     21 C          -0.2987    0.4037    5.4059 C.ar    1  UNL11      -0.0540
     22 C          -1.5801    0.0199    5.1601 C.ar    1  UNL11      -0.0612
     23 C          -1.9159   -0.2921    3.8388 C.ar    1  UNL11      -0.0611
     24 C          -1.0738   -0.2483    2.7796 C.ar    1  UNL11      -0.0533
     25 C           0.2454    0.1594    3.0785 C.ar    1  UNL11      -0.0058
     26 H           0.2575   -0.4347   -1.1816 H       1  UNL11       0.1494
     27 H          -2.0014   -0.3629   -0.2836 H       1  UNL11       0.0529
     28 H          -1.3836   -1.8097    0.5024 H       1  UNL11       0.0529
     29 H          -1.4364    2.3812    3.8290 H       1  UNL11       0.4829
     30 H          -5.7785    0.7477    3.7528 H       1  UNL11       0.0627
     31 H          -6.8077   -1.2325    2.5861 H       1  UNL11       0.0618
     32 H          -5.4038   -2.5312    1.0120 H       1  UNL11       0.0618
     33 H          -3.0763   -1.9491    0.6219 H       1  UNL11       0.0624
     34 H           3.1751    0.8330    1.6838 H       1  UNL11       0.0625
     35 H           3.8074    1.3822    4.0214 H       1  UNL11       0.0618
     36 H           2.1378    1.1395    5.7468 H       1  UNL11       0.0624
     37 H           0.0010    0.6629    6.4323 H       1  UNL11       0.0624
     38 H          -2.3037   -0.0312    5.9153 H       1  UNL11       0.0618
     39 H          -2.9416   -0.6098    3.6529 H       1  UNL11       0.0618
     40 H          -1.2793   -0.4748    1.7460 H       1  UNL11       0.0624
@<TRIPOS>BOND
     1     1     2    2
     2     2     3   am
     3     2    16    1
     4     3     4    1
     5     3    26    1
     6     4     5    1
     7     4    27    1
     8     4    28    1
     9     5     6    2
    10     6     7    1
    11     7     8   am
    12     7    29    1
    13     8     9    2
    14     8    10    1
    15    10    11   ar
    16    11    12   ar
    17    11    30    1
    18    12    13   ar
    19    12    31    1
    20    13    14   ar
    21    13    32    1
    22    14    15   ar
    23    14    33    1
    24    15     5    1
    25    15    10   ar
    26    16    17   ar
    27    17    18   ar
    28    17    34    1
    29    18    19   ar
    30    18    35    1
    31    19    20   ar
    32    19    36    1
    33    20    21   ar
    34    21    22   ar
    35    21    37    1
    36    22    23   ar
    37    22    38    1
    38    23    24   ar
    39    23    39    1
    40    24    25   ar
    41    24    40    1
    42    25    16   ar
    43    25    20   ar
@<TRIPOS>MOLECULE
*****
 40 43 0 0 0
SMALL
GASTEIGER

@<TRIPOS>ATOM
      1 O           2.1778    0.3521    0.0198 O.2     1  UNL11      -0.2702
      2 C           1.0650    0.0856    0.6898 C.2     1  UNL11       0.2450
      3 N           0.0185   -0.3897   -0.1984 N.am    1  UNL11      -0.3055
      4 C          -1.1740   -0.6558    0.5335 C.3     1  UNL11       0.0605
      5 C          -2.0230    0.1754    1.3282 C.2     1  UNL11       0.1319
      6 N          -1.8408    1.4758    1.5541 N.2     1  UNL11      -0.0060
      7 N          -2.8258    2.2547    1.9666 N.am    1  UNL11      -0.0355
      8 C          -4.0731    1.8019    2.1898 C.2     1  UNL11       0.4383
      9 O          -4.9747    2.5792    2.5646 O.2     1  UNL11      -0.2116
     10 C          -4.3689    0.4677    1.9987 C.ar    1  UNL11       0.1005
     11 C          -5.6252   -0.0415    2.3129 C.ar    1  UNL11      -0.0441
     12 C          -5.7992   -1.4099    2.1844 C.ar    1  UNL11      -0.0608
     13 C          -4.7497   -2.1932    1.7530 C.ar    1  UNL11      -0.0611
     14 C          -3.5136   -1.6806    1.4375 C.ar    1  UNL11      -0.0517
     15 C          -3.3383   -0.3228    1.5706 C.ar    1  UNL11       0.0205
     16 C           1.1408    0.2834    2.0778 C.ar    1  UNL11       0.0444
     17 C           2.0958    1.3367    2.4087 C.ar    1  UNL11      -0.0490
     18 C           2.3441    1.7455    3.6630 C.ar    1  UNL11      -0.0605
     19 C           1.6658    1.1593    4.7025 C.ar    1  UNL11      -0.0540
     20 C           0.7618    0.1725    4.4230 C.ar    1  UNL11      -0.0172
     21 C           0.0857   -0.3452    5.4917 C.ar    1  UNL11      -0.0540
     22 C          -0.8600   -1.3056    5.3097 C.ar    1  UNL11      -0.0612
     23 C          -1.1011   -1.7309    3.9994 C.ar    1  UNL11      -0.0611
     24 C          -0.4714   -1.2711    2.8925 C.ar    1  UNL11      -0.0533
     25 C           0.4995   -0.2719    3.1261 C.ar    1  UNL11      -0.0058
     26 H           0.2575   -0.4347   -1.1816 H       1  UNL11       0.1494
     27 H          -1.9079   -0.9830   -0.3566 H       1  UNL11       0.0529
     28 H          -1.0897   -1.7233    1.0127 H       1  UNL11       0.0529
     29 H          -2.6831    3.2638    2.1186 H       1  UNL11       0.4829
     30 H          -6.4307    0.5758    2.6277 H       1  UNL11       0.0627
     31 H          -6.7507   -1.9143    2.4311 H       1  UNL11       0.0618
     32 H          -4.8430   -3.2879    1.6506 H       1  UNL11       0.0618
     33 H          -2.6949   -2.2802    1.1230 H       1  UNL11       0.0624
     34 H           2.6112    1.7626    1.5821 H       1  UNL11       0.0625
     35 H           3.0721    2.5314    3.8977 H       1  UNL11       0.0618
     36 H           1.8713    1.4872    5.7118 H       1  UNL11       0.0624
     37 H           0.2985    0.0189    6.5079 H       1  UNL11       0.0624
     38 H          -1.4063   -1.7110    6.1058 H       1  UNL11       0.0618
     39 H          -1.8521   -2.5089    3.8640 H       1  UNL11       0.0618
     40 H          -0.6188   -1.5605    1.8647 H       1  UNL11       0.0624
@<TRIPOS>BOND
     1     1     2    2
     2     2     3   am
     3     2    16    1
     4     3     4    1
     5     3    26    1
     6     4     5    1
     7     4    27    1
     8     4    28    1
     9     5     6    2
    10     6     7    1
    11     7     8   am
    12     7    29    1
    13     8     9    2
    14     8    10    1
    15    10    11   ar
    16    11    12   ar
    17    11    30    1
    18    12    13   ar
    19    12    31    1
    20    13    14   ar
    21    13    32    1
    22    14    15   ar
    23    14    33    1
    24    15     5    1
    25    15    10   ar
    26    16    17   ar
    27    17    18   ar
    28    17    34    1
    29    18    19   ar
    30    18    35    1
    31    19    20   ar
    32    19    36    1
    33    20    21   ar
    34    21    22   ar
    35    21    37    1
    36    22    23   ar
    37    22    38    1
    38    23    24   ar
    39    23    39    1
    40    24    25   ar
    41    24    40    1
    42    25    16   ar
    43    25    20   ar
@<TRIPOS>MOLECULE
*****
 40 43 0 0 0
SMALL
GASTEIGER

@<TRIPOS>ATOM
      1 O           0.6381    0.1470    1.9437 O.2     1  UNL11      -0.2702
      2 C           1.0650    0.0856    0.6898 C.2     1  UNL11       0.2450
      3 N           0.0185   -0.3897   -0.1984 N.am    1  UNL11      -0.3055
      4 C          -1.1740   -0.6558    0.5335 C.3     1  UNL11       0.0605
      5 C          -2.5574   -0.5881    0.1799 C.2     1  UNL11       0.1319
      6 N          -3.0861    0.2397   -0.7203 N.2     1  UNL11      -0.0060
      7 N          -4.2669    0.0094   -1.2677 N.am    1  UNL11      -0.0355
      8 C          -5.0192   -1.0635   -0.9621 C.2     1  UNL11       0.4383
      9 O          -6.1220   -1.2464   -1.5169 O.2     1  UNL11      -0.2116
     10 C          -4.5718   -1.9793   -0.0319 C.ar    1  UNL11       0.1005
     11 C          -5.3721   -3.0446    0.3696 C.ar    1  UNL11      -0.0441
     12 C          -4.8809   -3.8537    1.3813 C.ar    1  UNL11      -0.0608
     13 C          -3.6457   -3.5838    1.9313 C.ar    1  UNL11      -0.0611
     14 C          -2.8582   -2.5332    1.5233 C.ar    1  UNL11      -0.0517
     15 C          -3.3479   -1.7258    0.5230 C.ar    1  UNL11       0.0205
     16 C           2.3881    0.5095    0.4872 C.ar    1  UNL11       0.0444
     17 C           3.2060    0.2688    1.6720 C.ar    1  UNL11      -0.0490
     18 C           4.5153    0.5573    1.7408 C.ar    1  UNL11      -0.0605
     19 C           5.1375    1.0998    0.6440 C.ar    1  UNL11      -0.0540
     20 C           4.3979    1.3328   -0.4820 C.ar    1  UNL11      -0.0172
     21 C           5.0777    1.8339   -1.5561 C.ar    1  UNL11      -0.0540
     22 C           4.4351    2.0643   -2.7324 C.ar    1  UNL11      -0.0612
     23 C           3.0689    1.7704   -2.7874 C.ar    1  UNL11      -0.0611
     24 C           2.3265    1.2776   -1.7680 C.ar    1  UNL11      -0.0533
     25 C           3.0339    1.0489   -0.5667 C.ar    1  UNL11      -0.0058
     26 H           0.2575   -0.4347   -1.1816 H       1  UNL11       0.1494
     27 H          -1.0325   -1.8241    0.7640 H       1  UNL11       0.0529
     28 H          -1.0218   -0.2998    1.6409 H       1  UNL11       0.0529
     29 H          -4.6602    0.6425   -1.9792 H       1  UNL11       0.4829
     30 H          -6.3147   -3.2516   -0.0748 H       1  UNL11       0.0627
     31 H          -5.4491   -4.7102    1.7866 H       1  UNL11       0.0618
     32 H          -3.2250   -4.1953    2.7477 H       1  UNL11       0.0618
     33 H          -1.9142   -2.3078    1.9555 H       1  UNL11       0.0624
     34 H           2.6917   -0.1424    2.5067 H       1  UNL11       0.0625
     35 H           5.1154    0.3803    2.6414 H       1  UNL11       0.0618
     36 H           6.1907    1.3354    0.7038 H       1  UNL11       0.0624
     37 H           6.1541    2.0473   -1.4768 H       1  UNL11       0.0624
     38 H           4.9307    2.4328   -3.5781 H       1  UNL11       0.0618
     39 H           2.5595    1.9691   -3.7301 H       1  UNL11       0.0618
     40 H           1.2770    1.0322   -1.7565 H       1  UNL11       0.0624
@<TRIPOS>BOND
     1     1     2    2
     2     2     3   am
     3     2    16    1
     4     3     4    1
     5     3    26    1
     6     4     5    1
     7     4    27    1
     8     4    28    1
     9     5     6    2
    10     6     7    1
    11     7     8   am
    12     7    29    1
    13     8     9    2
    14     8    10    1
    15    10    11   ar
    16    11    12   ar
    17    11    30    1
    18    12    13   ar
    19    12    31    1
    20    13    14   ar
    21    13    32    1
    22    14    15   ar
    23    14    33    1
    24    15     5    1
    25    15    10   ar
    26    16    17   ar
    27    17    18   ar
    28    17    34    1
    29    18    19   ar
    30    18    35    1
    31    19    20   ar
    32    19    36    1
    33    20    21   ar
    34    21    22   ar
    35    21    37    1
    36    22    23   ar
    37    22    38    1
    38    23    24   ar
    39    23    39    1
    40    24    25   ar
    41    24    40    1
    42    25    16   ar
    43    25    20   ar
@<TRIPOS>MOLECULE
*****
 40 43 0 0 0
SMALL
GASTEIGER

@<TRIPOS>ATOM
      1 O           2.1778    0.3521    0.0198 O.2     1  UNL11      -0.2702
      2 C           1.0650    0.0856    0.6898 C.2     1  UNL11       0.2450
      3 N           0.0185   -0.3897   -0.1984 N.am    1  UNL11      -0.3055
      4 C          -1.1740   -0.6558    0.5335 C.3     1  UNL11       0.0605
      5 C          -1.7200   -0.0878    1.7262 C.2     1  UNL11       0.1319
      6 N          -2.0601    1.1902    1.8890 N.2     1  UNL11      -0.0060
      7 N          -2.8859    1.5733    2.8473 N.am    1  UNL11      -0.0355
      8 C          -3.4394    0.7152    3.7236 C.2     1  UNL11       0.4383
      9 O          -4.2260    1.1226    4.6027 O.2     1  UNL11      -0.2116
     10 C          -3.1452   -0.6310    3.6529 C.ar    1  UNL11       0.1005
     11 C          -3.6300   -1.5231    4.6045 C.ar    1  UNL11      -0.0441
     12 C          -3.2002   -2.8369    4.5115 C.ar    1  UNL11      -0.0608
     13 C          -2.3372   -3.2020    3.5000 C.ar    1  UNL11      -0.0611
     14 C          -1.8689   -2.3154    2.5593 C.ar    1  UNL11      -0.0517
     15 C          -2.2904   -1.0095    2.6547 C.ar    1  UNL11       0.0205
     16 C           1.1408    0.2834    2.0778 C.ar    1  UNL11       0.0444
     17 C           0.2550   -0.6326    2.7899 C.ar    1  UNL11      -0.0490
     18 C           0.1510   -0.6742    4.1277 C.ar    1  UNL11      -0.0605
     19 C           0.9184    0.1769    4.8834 C.ar    1  UNL11      -0.0540
     20 C           1.7607    1.0436    4.2443 C.ar    1  UNL11      -0.0172
     21 C           2.5308    1.8371    5.0471 C.ar    1  UNL11      -0.0540
     22 C           3.4256    2.7056    4.5040 C.ar    1  UNL11      -0.0612
     23 C           3.5160    2.7474    3.1090 C.ar    1  UNL11      -0.0611
     24 C           2.7864    1.9987    2.2485 C.ar    1  UNL11      -0.0533
     25 C           1.8732    1.1074    2.8545 C.ar    1  UNL11      -0.0058
     26 H           0.2575   -0.4347   -1.1816 H       1  UNL11       0.1494
     27 H          -2.0014   -0.3629   -0.2836 H       1  UNL11       0.0529
     28 H          -1.3836   -1.8097    0.5024 H       1  UNL11       0.0529
     29 H          -3.1616    2.5604    2.9539 H       1  UNL11       0.4829
     30 H          -4.3085   -1.2320    5.3686 H       1  UNL11       0.0627
     31 H          -3.5087   -3.6160    5.2315 H       1  UNL11       0.0618
     32 H          -1.9608   -4.2343    3.3993 H       1  UNL11       0.0618
     33 H          -1.1889   -2.5853    1.7889 H       1  UNL11       0.0624
     34 H          -0.3324   -1.2708    2.1752 H       1  UNL11       0.0625
     35 H          -0.5265   -1.3611    4.6490 H       1  UNL11       0.0618
     36 H           0.8291    0.1445    5.9601 H       1  UNL11       0.0624
     37 H           2.4359    1.7719    6.1413 H       1  UNL11       0.0624
     38 H           4.0411    3.3155    5.0919 H       1  UNL11       0.0618
     39 H           4.2270    3.4544    2.6822 H       1  UNL11       0.0618
     40 H           2.8172    1.9891    1.1712 H       1  UNL11       0.0624
@<TRIPOS>BOND
     1     1     2    2
     2     2     3   am
     3     2    16    1
     4     3     4    1
     5     3    26    1
     6     4     5    1
     7     4    27    1
     8     4    28    1
     9     5     6    2
    10     6     7    1
    11     7     8   am
    12     7    29    1
    13     8     9    2
    14     8    10    1
    15    10    11   ar
    16    11    12   ar
    17    11    30    1
    18    12    13   ar
    19    12    31    1
    20    13    14   ar
    21    13    32    1
    22    14    15   ar
    23    14    33    1
    24    15     5    1
    25    15    10   ar
    26    16    17   ar
    27    17    18   ar
    28    17    34    1
    29    18    19   ar
    30    18    35    1
    31    19    20   ar
    32    19    36    1
    33    20    21   ar
    34    21    22   ar
    35    21    37    1
    36    22    23   ar
    37    22    38    1
    38    23    24   ar
    39    23    39    1
    40    24    25   ar
    41    24    40    1
    42    25    16   ar
    43    25    20   ar
@<TRIPOS>MOLECULE
*****
 40 43 0 0 0
SMALL
GASTEIGER

@<TRIPOS>ATOM
      1 O           0.6381    0.1470    1.9437 O.2     1  UNL11      -0.2702
      2 C           1.0650    0.0856    0.6898 C.2     1  UNL11       0.2450
      3 N           0.0185   -0.3897   -0.1984 N.am    1  UNL11      -0.3055
      4 C          -1.1740   -0.6558    0.5335 C.3     1  UNL11       0.0605
      5 C          -2.4586   -1.1431    0.1390 C.2     1  UNL11       0.1319
      6 N          -2.8228   -2.4243    0.1046 N.2     1  UNL11      -0.0060
      7 N          -4.0941   -2.7860    0.0993 N.am    1  UNL11      -0.0355
      8 C          -5.1074   -1.9011    0.1260 C.2     1  UNL11       0.4383
      9 O          -6.2928   -2.2912    0.1349 O.2     1  UNL11      -0.2116
     10 C          -4.8425   -0.5471    0.1503 C.ar    1  UNL11       0.1005
     11 C          -5.8714    0.3873    0.0829 C.ar    1  UNL11      -0.0441
     12 C          -5.5055    1.7216    0.0107 C.ar    1  UNL11      -0.0608
     13 C          -4.1697    2.0635    0.0169 C.ar    1  UNL11      -0.0611
     14 C          -3.1595    1.1339    0.0913 C.ar    1  UNL11      -0.0517
     15 C          -3.5220   -0.1914    0.1568 C.ar    1  UNL11       0.0205
     16 C           2.3881    0.5095    0.4872 C.ar    1  UNL11       0.0444
     17 C           3.2060    0.2688    1.6720 C.ar    1  UNL11      -0.0490
     18 C           4.5153    0.5573    1.7408 C.ar    1  UNL11      -0.0605
     19 C           5.1375    1.0998    0.6440 C.ar    1  UNL11      -0.0540
     20 C           4.3979    1.3328   -0.4820 C.ar    1  UNL11      -0.0172
     21 C           5.0777    1.8339   -1.5561 C.ar    1  UNL11      -0.0540
     22 C           4.4351    2.0643   -2.7324 C.ar    1  UNL11      -0.0612
     23 C           3.0689    1.7704   -2.7874 C.ar    1  UNL11      -0.0611
     24 C           2.3265    1.2776   -1.7680 C.ar    1  UNL11      -0.0533
     25 C           3.0339    1.0489   -0.5667 C.ar    1  UNL11      -0.0058
     26 H           0.2575   -0.4347   -1.1816 H       1  UNL11       0.1494
     27 H          -0.7914   -1.5254    1.2653 H       1  UNL11       0.0529
     28 H          -1.2897    0.1578    1.3707 H       1  UNL11       0.0529
     29 H          -4.3685   -3.7792    0.0944 H       1  UNL11       0.4829
     30 H          -6.8973    0.1110    0.0964 H       1  UNL11       0.0627
     31 H          -6.2456    2.5378   -0.0694 H       1  UNL11       0.0618
     32 H          -3.8364    3.1131   -0.0530 H       1  UNL11       0.0618
     33 H          -2.1282    1.3888    0.0771 H       1  UNL11       0.0624
     34 H           2.6917   -0.1424    2.5067 H       1  UNL11       0.0625
     35 H           5.1154    0.3803    2.6414 H       1  UNL11       0.0618
     36 H           6.1907    1.3354    0.7038 H       1  UNL11       0.0624
     37 H           6.1541    2.0473   -1.4768 H       1  UNL11       0.0624
     38 H           4.9307    2.4328   -3.5781 H       1  UNL11       0.0618
     39 H           2.5595    1.9691   -3.7301 H       1  UNL11       0.0618
     40 H           1.2770    1.0322   -1.7565 H       1  UNL11       0.0624
@<TRIPOS>BOND
     1     1     2    2
     2     2     3   am
     3     2    16    1
     4     3     4    1
     5     3    26    1
     6     4     5    1
     7     4    27    1
     8     4    28    1
     9     5     6    2
    10     6     7    1
    11     7     8   am
    12     7    29    1
    13     8     9    2
    14     8    10    1
    15    10    11   ar
    16    11    12   ar
    17    11    30    1
    18    12    13   ar
    19    12    31    1
    20    13    14   ar
    21    13    32    1
    22    14    15   ar
    23    14    33    1
    24    15     5    1
    25    15    10   ar
    26    16    17   ar
    27    17    18   ar
    28    17    34    1
    29    18    19   ar
    30    18    35    1
    31    19    20   ar
    32    19    36    1
    33    20    21   ar
    34    21    22   ar
    35    21    37    1
    36    22    23   ar
    37    22    38    1
    38    23    24   ar
    39    23    39    1
    40    24    25   ar
    41    24    40    1
    42    25    16   ar
    43    25    20   ar
@<TRIPOS>MOLECULE
*****
 40 43 0 0 0
SMALL
GASTEIGER

@<TRIPOS>ATOM
      1 O           0.6381    0.1470    1.9437 O.2     1  UNL11      -0.2702
      2 C           1.0650    0.0856    0.6898 C.2     1  UNL11       0.2450
      3 N           0.0185   -0.3897   -0.1984 N.am    1  UNL11      -0.3055
      4 C          -1.1740   -0.6558    0.5335 C.3     1  UNL11       0.0605
      5 C          -2.3023    0.1564    0.8663 C.2     1  UNL11       0.1319
      6 N          -3.5637   -0.0908    0.5157 N.2     1  UNL11      -0.0060
      7 N          -4.5828    0.4648    1.1480 N.am    1  UNL11      -0.0355
      8 C          -4.4292    1.3140    2.1804 C.2     1  UNL11       0.4383
      9 O          -5.4231    1.8021    2.7561 O.2     1  UNL11      -0.2116
     10 C          -3.1641    1.6489    2.6179 C.ar    1  UNL11       0.1005
     11 C          -2.9781    2.5960    3.6202 C.ar    1  UNL11      -0.0441
     12 C          -1.6714    2.9426    3.9233 C.ar    1  UNL11      -0.0608
     13 C          -0.6320    2.3444    3.2429 C.ar    1  UNL11      -0.0611
     14 C          -0.8247    1.4038    2.2588 C.ar    1  UNL11      -0.0517
     15 C          -2.1220    1.0637    1.9532 C.ar    1  UNL11       0.0205
     16 C           2.3881    0.5095    0.4872 C.ar    1  UNL11       0.0444
     17 C           3.2060    0.2688    1.6720 C.ar    1  UNL11      -0.0490
     18 C           4.5153    0.5573    1.7408 C.ar    1  UNL11      -0.0605
     19 C           5.1375    1.0998    0.6440 C.ar    1  UNL11      -0.0540
     20 C           4.3979    1.3328   -0.4820 C.ar    1  UNL11      -0.0172
     21 C           5.0777    1.8339   -1.5561 C.ar    1  UNL11      -0.0540
     22 C           4.4351    2.0643   -2.7324 C.ar    1  UNL11      -0.0612
     23 C           3.0689    1.7704   -2.7874 C.ar    1  UNL11      -0.0611
     24 C           2.3265    1.2776   -1.7680 C.ar    1  UNL11      -0.0533
     25 C           3.0339    1.0489   -0.5667 C.ar    1  UNL11      -0.0058
     26 H           0.2575   -0.4347   -1.1816 H       1  UNL11       0.1494
     27 H          -1.6703   -1.5008   -0.1577 H       1  UNL11       0.0529
     28 H          -0.9148   -1.3728    1.4251 H       1  UNL11       0.0529
     29 H          -5.5563    0.2524    0.8854 H       1  UNL11       0.4829
     30 H          -3.7878    3.0365    4.1488 H       1  UNL11       0.0627
     31 H          -1.4189    3.7007    4.6863 H       1  UNL11       0.0618
     32 H           0.4217    2.6025    3.4445 H       1  UNL11       0.0618
     33 H          -0.0296    0.9530    1.7172 H       1  UNL11       0.0624
     34 H           2.6917   -0.1424    2.5067 H       1  UNL11       0.0625
     35 H           5.1154    0.3803    2.6414 H       1  UNL11       0.0618
     36 H           6.1907    1.3354    0.7038 H       1  UNL11       0.0624
     37 H           6.1541    2.0473   -1.4768 H       1  UNL11       0.0624
     38 H           4.9307    2.4328   -3.5781 H       1  UNL11       0.0618
     39 H           2.5595    1.9691   -3.7301 H       1  UNL11       0.0618
     40 H           1.2770    1.0322   -1.7565 H       1  UNL11       0.0624
@<TRIPOS>BOND
     1     1     2    2
     2     2     3   am
     3     2    16    1
     4     3     4    1
     5     3    26    1
     6     4     5    1
     7     4    27    1
     8     4    28    1
     9     5     6    2
    10     6     7    1
    11     7     8   am
    12     7    29    1
    13     8     9    2
    14     8    10    1
    15    10    11   ar
    16    11    12   ar
    17    11    30    1
    18    12    13   ar
    19    12    31    1
    20    13    14   ar
    21    13    32    1
    22    14    15   ar
    23    14    33    1
    24    15     5    1
    25    15    10   ar
    26    16    17   ar
    27    17    18   ar
    28    17    34    1
    29    18    19   ar
    30    18    35    1
    31    19    20   ar
    32    19    36    1
    33    20    21   ar
    34    21    22   ar
    35    21    37    1
    36    22    23   ar
    37    22    38    1
    38    23    24   ar
    39    23    39    1
    40    24    25   ar
    41    24    40    1
    42    25    16   ar
    43    25    20   ar
@<TRIPOS>MOLECULE
*****
 40 43 0 0 0
SMALL
GASTEIGER

@<TRIPOS>ATOM
      1 O           0.6381    0.1470    1.9437 O.2     1  UNL11      -0.2702
      2 C           1.0650    0.0856    0.6898 C.2     1  UNL11       0.2450
      3 N           0.0185   -0.3897   -0.1984 N.am    1  UNL11      -0.3055
      4 C          -1.1740   -0.6558    0.5335 C.3     1  UNL11       0.0605
      5 C          -1.4616   -1.5400    1.6193 C.2     1  UNL11       0.1319
      6 N          -2.3761   -1.3312    2.5655 N.2     1  UNL11      -0.0060
      7 N          -2.8517   -2.3195    3.3031 N.am    1  UNL11      -0.0355
      8 C          -2.4541   -3.5970    3.1601 C.2     1  UNL11       0.4383
      9 O          -2.9434   -4.4990    3.8704 O.2     1  UNL11      -0.2116
     10 C          -1.5011   -3.9232    2.2169 C.ar    1  UNL11       0.1005
     11 C          -1.0060   -5.2196    2.1148 C.ar    1  UNL11      -0.0441
     12 C           0.0206   -5.4311    1.2088 C.ar    1  UNL11      -0.0608
     13 C           0.4940   -4.3771    0.4564 C.ar    1  UNL11      -0.0611
     14 C          -0.0063   -3.1005    0.5585 C.ar    1  UNL11      -0.0517
     15 C          -1.0214   -2.8885    1.4622 C.ar    1  UNL11       0.0205
     16 C           2.3881    0.5095    0.4872 C.ar    1  UNL11       0.0444
     17 C           3.0039   -0.2006   -0.6297 C.ar    1  UNL11      -0.0490
     18 C           4.2564    0.0292   -1.0548 C.ar    1  UNL11      -0.0605
     19 C           5.0103    0.9867   -0.4230 C.ar    1  UNL11      -0.0540
     20 C           4.4588    1.6713    0.6240 C.ar    1  UNL11      -0.0172
     21 C           5.2392    2.6412    1.1873 C.ar    1  UNL11      -0.0540
     22 C           4.7640    3.4004    2.2108 C.ar    1  UNL11      -0.0612
     23 C           3.4620    3.1433    2.6518 C.ar    1  UNL11      -0.0611
     24 C           2.6310    2.1997    2.1496 C.ar    1  UNL11      -0.0533
     25 C           3.1624    1.4375    1.0855 C.ar    1  UNL11      -0.0058
     26 H           0.2575   -0.4347   -1.1816 H       1  UNL11       0.1494
     27 H          -1.3708    0.4187    1.0282 H       1  UNL11       0.0529
     28 H          -2.0848   -0.6122   -0.2046 H       1  UNL11       0.0529
     29 H          -3.5746   -2.1542    4.0185 H       1  UNL11       0.4829
     30 H          -1.3918   -6.0265    2.6884 H       1  UNL11       0.0627
     31 H           0.4972   -6.4181    1.0698 H       1  UNL11       0.0618
     32 H           1.3190   -4.5007   -0.2657 H       1  UNL11       0.0618
     33 H           0.3664   -2.2799   -0.0039 H       1  UNL11       0.0624
     34 H           2.3970   -0.9421   -1.0903 H       1  UNL11       0.0625
     35 H           4.7098   -0.5193   -1.8891 H       1  UNL11       0.0618
     36 H           6.0201    1.1662   -0.7643 H       1  UNL11       0.0624
     37 H           6.2571    2.8186    0.8093 H       1  UNL11       0.0624
     38 H           5.3311    4.1616    2.6532 H       1  UNL11       0.0618
     39 H           3.0936    3.7484    3.4800 H       1  UNL11       0.0618
     40 H           1.6231    1.9620    2.4485 H       1  UNL11       0.0624
@<TRIPOS>BOND
     1     1     2    2
     2     2     3   am
     3     2    16    1
     4     3     4    1
     5     3    26    1
     6     4     5    1
     7     4    27    1
     8     4    28    1
     9     5     6    2
    10     6     7    1
    11     7     8   am
    12     7    29    1
    13     8     9    2
    14     8    10    1
    15    10    11   ar
    16    11    12   ar
    17    11    30    1
    18    12    13   ar
    19    12    31    1
    20    13    14   ar
    21    13    32    1
    22    14    15   ar
    23    14    33    1
    24    15     5    1
    25    15    10   ar
    26    16    17   ar
    27    17    18   ar
    28    17    34    1
    29    18    19   ar
    30    18    35    1
    31    19    20   ar
    32    19    36    1
    33    20    21   ar
    34    21    22   ar
    35    21    37    1
    36    22    23   ar
    37    22    38    1
    38    23    24   ar
    39    23    39    1
    40    24    25   ar
    41    24    40    1
    42    25    16   ar
    43    25    20   ar
@<TRIPOS>MOLECULE
*****
 40 43 0 0 0
SMALL
GASTEIGER

@<TRIPOS>ATOM
      1 O           2.1778    0.3521    0.0198 O.2     1  UNL11      -0.2702
      2 C           1.0650    0.0856    0.6898 C.2     1  UNL11       0.2450
      3 N           0.0185   -0.3897   -0.1984 N.am    1  UNL11      -0.3055
      4 C          -1.1740   -0.6558    0.5335 C.3     1  UNL11       0.0605
      5 C          -1.9463   -1.8443    0.7190 C.2     1  UNL11       0.1319
      6 N          -2.1988   -2.4279    1.8898 N.2     1  UNL11      -0.0060
      7 N          -3.1991   -3.2784    2.0414 N.am    1  UNL11      -0.0355
      8 C          -4.0291   -3.6192    1.0386 C.2     1  UNL11       0.4383
      9 O          -4.9697   -4.4158    1.2340 O.2     1  UNL11      -0.2116
     10 C          -3.8500   -3.0824   -0.2198 C.ar    1  UNL11       0.1005
     11 C          -4.6356   -3.4907   -1.2933 C.ar    1  UNL11      -0.0441
     12 C          -4.3172   -2.9732   -2.5384 C.ar    1  UNL11      -0.0608
     13 C          -3.2661   -2.0892   -2.6609 C.ar    1  UNL11      -0.0611
     14 C          -2.4996   -1.6853   -1.5934 C.ar    1  UNL11      -0.0517
     15 C          -2.8113   -2.2035   -0.3579 C.ar    1  UNL11       0.0205
     16 C           1.1408    0.2834    2.0778 C.ar    1  UNL11       0.0444
     17 C           0.2550   -0.6326    2.7899 C.ar    1  UNL11      -0.0490
     18 C           0.1510   -0.6742    4.1277 C.ar    1  UNL11      -0.0605
     19 C           0.9184    0.1769    4.8834 C.ar    1  UNL11      -0.0540
     20 C           1.7607    1.0436    4.2443 C.ar    1  UNL11      -0.0172
     21 C           2.5308    1.8371    5.0471 C.ar    1  UNL11      -0.0540
     22 C           3.4256    2.7056    4.5040 C.ar    1  UNL11      -0.0612
     23 C           3.5160    2.7474    3.1090 C.ar    1  UNL11      -0.0611
     24 C           2.7864    1.9987    2.2485 C.ar    1  UNL11      -0.0533
     25 C           1.8732    1.1074    2.8545 C.ar    1  UNL11      -0.0058
     26 H           0.2575   -0.4347   -1.1816 H       1  UNL11       0.1494
     27 H          -0.8014   -0.4239    1.6495 H       1  UNL11       0.0529
     28 H          -1.8808    0.2769    0.4511 H       1  UNL11       0.0529
     29 H          -3.4020   -3.7095    2.9550 H       1  UNL11       0.4829
     30 H          -5.4539   -4.1594   -1.1821 H       1  UNL11       0.0627
     31 H          -4.8649   -3.2525   -3.4564 H       1  UNL11       0.0618
     32 H          -2.9718   -1.6653   -3.6361 H       1  UNL11       0.0618
     33 H          -1.6765   -1.0197   -1.6833 H       1  UNL11       0.0624
     34 H          -0.3324   -1.2708    2.1752 H       1  UNL11       0.0625
     35 H          -0.5265   -1.3611    4.6490 H       1  UNL11       0.0618
     36 H           0.8291    0.1445    5.9601 H       1  UNL11       0.0624
     37 H           2.4359    1.7719    6.1413 H       1  UNL11       0.0624
     38 H           4.0411    3.3155    5.0919 H       1  UNL11       0.0618
     39 H           4.2270    3.4544    2.6822 H       1  UNL11       0.0618
     40 H           2.8172    1.9891    1.1712 H       1  UNL11       0.0624
@<TRIPOS>BOND
     1     1     2    2
     2     2     3   am
     3     2    16    1
     4     3     4    1
     5     3    26    1
     6     4     5    1
     7     4    27    1
     8     4    28    1
     9     5     6    2
    10     6     7    1
    11     7     8   am
    12     7    29    1
    13     8     9    2
    14     8    10    1
    15    10    11   ar
    16    11    12   ar
    17    11    30    1
    18    12    13   ar
    19    12    31    1
    20    13    14   ar
    21    13    32    1
    22    14    15   ar
    23    14    33    1
    24    15     5    1
    25    15    10   ar
    26    16    17   ar
    27    17    18   ar
    28    17    34    1
    29    18    19   ar
    30    18    35    1
    31    19    20   ar
    32    19    36    1
    33    20    21   ar
    34    21    22   ar
    35    21    37    1
    36    22    23   ar
    37    22    38    1
    38    23    24   ar
    39    23    39    1
    40    24    25   ar
    41    24    40    1
    42    25    16   ar
    43    25    20   ar
@<TRIPOS>MOLECULE
*****
 40 43 0 0 0
SMALL
GASTEIGER

@<TRIPOS>ATOM
      1 O           0.6381    0.1470    1.9437 O.2     1  UNL11      -0.2702
      2 C           1.0650    0.0856    0.6898 C.2     1  UNL11       0.2450
      3 N           0.0185   -0.3897   -0.1984 N.am    1  UNL11      -0.3055
      4 C          -1.1740   -0.6558    0.5335 C.3     1  UNL11       0.0605
      5 C          -1.4052   -1.0712    1.8816 C.2     1  UNL11       0.1319
      6 N          -1.5763   -0.2581    2.9231 N.2     1  UNL11      -0.0060
      7 N          -2.1463   -0.6714    4.0417 N.am    1  UNL11      -0.0355
      8 C          -2.5910   -1.9294    4.2157 C.2     1  UNL11       0.4383
      9 O          -3.1366   -2.2692    5.2855 O.2     1  UNL11      -0.2116
     10 C          -2.4525   -2.8578    3.2043 C.ar    1  UNL11       0.1005
     11 C          -2.8183   -4.1868    3.3944 C.ar    1  UNL11      -0.0441
     12 C          -2.5491   -5.0674    2.3593 C.ar    1  UNL11      -0.0608
     13 C          -1.9520   -4.6026    1.2066 C.ar    1  UNL11      -0.0611
     14 C          -1.6006   -3.2860    1.0242 C.ar    1  UNL11      -0.0517
     15 C          -1.8620   -2.4124    2.0540 C.ar    1  UNL11       0.0205
     16 C           2.3881    0.5095    0.4872 C.ar    1  UNL11       0.0444
     17 C           3.0039   -0.2006   -0.6297 C.ar    1  UNL11      -0.0490
     18 C           4.2564    0.0292   -1.0548 C.ar    1  UNL11      -0.0605
     19 C           5.0103    0.9867   -0.4230 C.ar    1  UNL11      -0.0540
     20 C           4.4588    1.6713    0.6240 C.ar    1  UNL11      -0.0172
     21 C           5.2392    2.6412    1.1873 C.ar    1  UNL11      -0.0540
     22 C           4.7640    3.4004    2.2108 C.ar    1  UNL11      -0.0612
     23 C           3.4620    3.1433    2.6518 C.ar    1  UNL11      -0.0611
     24 C           2.6310    2.1997    2.1496 C.ar    1  UNL11      -0.0533
     25 C           3.1624    1.4375    1.0855 C.ar    1  UNL11      -0.0058
     26 H           0.2575   -0.4347   -1.1816 H       1  UNL11       0.1494
     27 H          -1.6878    0.4276    0.5149 H       1  UNL11       0.0529
     28 H          -1.9496   -1.1643   -0.1850 H       1  UNL11       0.0529
     29 H          -2.2950   -0.0314    4.8354 H       1  UNL11       0.4829
     30 H          -3.2937   -4.5285    4.2811 H       1  UNL11       0.0627
     31 H          -2.7794   -6.1462    2.4210 H       1  UNL11       0.0618
     32 H          -1.7085   -5.2735    0.3651 H       1  UNL11       0.0618
     33 H          -1.1230   -2.9245    0.1468 H       1  UNL11       0.0624
     34 H           2.3970   -0.9421   -1.0903 H       1  UNL11       0.0625
     35 H           4.7098   -0.5193   -1.8891 H       1  UNL11       0.0618
     36 H           6.0201    1.1662   -0.7643 H       1  UNL11       0.0624
     37 H           6.2571    2.8186    0.8093 H       1  UNL11       0.0624
     38 H           5.3311    4.1616    2.6532 H       1  UNL11       0.0618
     39 H           3.0936    3.7484    3.4800 H       1  UNL11       0.0618
     40 H           1.6231    1.9620    2.4485 H       1  UNL11       0.0624
@<TRIPOS>BOND
     1     1     2    2
     2     2     3   am
     3     2    16    1
     4     3     4    1
     5     3    26    1
     6     4     5    1
     7     4    27    1
     8     4    28    1
     9     5     6    2
    10     6     7    1
    11     7     8   am
    12     7    29    1
    13     8     9    2
    14     8    10    1
    15    10    11   ar
    16    11    12   ar
    17    11    30    1
    18    12    13   ar
    19    12    31    1
    20    13    14   ar
    21    13    32    1
    22    14    15   ar
    23    14    33    1
    24    15     5    1
    25    15    10   ar
    26    16    17   ar
    27    17    18   ar
    28    17    34    1
    29    18    19   ar
    30    18    35    1
    31    19    20   ar
    32    19    36    1
    33    20    21   ar
    34    21    22   ar
    35    21    37    1
    36    22    23   ar
    37    22    38    1
    38    23    24   ar
    39    23    39    1
    40    24    25   ar
    41    24    40    1
    42    25    16   ar
    43    25    20   ar
