@<TRIPOS>MOLECULE
*****
 37 39 0 0 0
SMALL
GASTEIGER

@<TRIPOS>ATOM
      1 O           1.9082   -1.0799    0.2697 O.2     1  UNL11      -0.2683
      2 C           0.7301   -0.6581    0.5028 C.2     1  UNL11       0.2688
      3 N           0.1173    0.3448   -0.2502 N.am    1  UNL11      -0.3096
      4 C          -1.2198    0.7862    0.0809 C.3     1  UNL11       0.0159
      5 C          -1.7533    0.0400    1.2553 C.3     1  UNL11      -0.0120
      6 C          -3.1328    0.4495    1.6217 C.ar    1  UNL11      -0.0432
      7 C          -3.6096    0.4064    2.9120 C.ar    1  UNL11      -0.0584
      8 C          -4.8717    0.7745    3.2899 C.ar    1  UNL11      -0.0588
      9 C          -5.7393    1.2256    2.3011 C.ar    1  UNL11      -0.0264
     10 C          -5.2998    1.2834    0.9983 C.ar    1  UNL11       0.1237
     11 F          -6.1419    1.7214    0.0377 F       1  UNL11      -0.2055
     12 C          -4.0230    0.9067    0.6437 C.ar    1  UNL11      -0.0232
     13 C           0.0622   -1.2853    1.6160 C.2     1  UNL11       0.1988
     14 N           0.8770   -1.7269    2.6143 N.2     1  UNL11       0.0021
     15 N           0.3613   -2.3192    3.6702 N.am    1  UNL11      -0.0351
     16 C          -0.9614   -2.5050    3.7957 C.2     1  UNL11       0.4383
     17 O          -1.4197   -3.0876    4.8471 O.2     1  UNL11      -0.2116
     18 C          -1.8013   -2.0731    2.8067 C.ar    1  UNL11       0.1009
     19 C          -3.1400   -2.2838    2.9182 C.ar    1  UNL11      -0.0441
     20 C          -3.9771   -1.8720    1.9036 C.ar    1  UNL11      -0.0608
     21 C          -3.4650   -1.2474    0.7737 C.ar    1  UNL11      -0.0611
     22 C          -2.1182   -1.0313    0.6550 C.ar    1  UNL11      -0.0513
     23 C          -1.2899   -1.4423    1.6733 C.ar    1  UNL11       0.0282
     24 H           0.5720    0.7868   -1.0940 H       1  UNL11       0.1491
     25 H          -1.9178    0.6701   -0.7992 H       1  UNL11       0.0465
     26 H          -1.1163    1.8802    0.3291 H       1  UNL11       0.0465
     27 H          -1.8402   -1.0396    0.9337 H       1  UNL11       0.0328
     28 H          -1.0818    0.0485    2.1100 H       1  UNL11       0.0328
     29 H          -2.9452    0.0574    3.6912 H       1  UNL11       0.0620
     30 H          -5.1886    0.7166    4.3317 H       1  UNL11       0.0619
     31 H          -6.7490    1.5203    2.6018 H       1  UNL11       0.0646
     32 H          -3.6638    0.9453   -0.3674 H       1  UNL11       0.0649
     33 H           0.9819   -2.6689    4.4569 H       1  UNL11       0.4829
     34 H          -3.5525   -2.7748    3.8029 H       1  UNL11       0.0627
     35 H          -5.0343   -2.0318    1.9803 H       1  UNL11       0.0618
     36 H          -4.1145   -0.9182   -0.0356 H       1  UNL11       0.0618
     37 H          -1.7467   -0.5800   -0.2435 H       1  UNL11       0.0624
@<TRIPOS>BOND
     1     1     2    2
     2     2     3   am
     3     2    13    1
     4     3     4    1
     5     3    24    1
     6     4     5    1
     7     4    25    1
     8     4    26    1
     9     5     6    1
    10     5    27    1
    11     5    28    1
    12     6     7   ar
    13     7     8   ar
    14     7    29    1
    15     8     9   ar
    16     8    30    1
    17     9    10   ar
    18     9    31    1
    19    10    11    1
    20    10    12   ar
    21    12     6   ar
    22    12    32    1
    23    13    14    2
    24    14    15    1
    25    15    16   am
    26    15    33    1
    27    16    17    2
    28    16    18    1
    29    18    19   ar
    30    19    20   ar
    31    19    34    1
    32    20    21   ar
    33    20    35    1
    34    21    22   ar
    35    21    36    1
    36    22    23   ar
    37    22    37    1
    38    23    13    1
    39    23    18   ar
@<TRIPOS>MOLECULE
*****
 37 39 0 0 0
SMALL
GASTEIGER

@<TRIPOS>ATOM
      1 O           1.9082   -1.0799    0.2697 O.2     1  UNL11      -0.2683
      2 C           0.7301   -0.6581    0.5028 C.2     1  UNL11       0.2688
      3 N           0.1173    0.3448   -0.2502 N.am    1  UNL11      -0.3096
      4 C          -1.2198    0.7862    0.0809 C.3     1  UNL11       0.0159
      5 C          -1.6806    1.8465   -0.8593 C.3     1  UNL11      -0.0120
      6 C          -0.8028    3.0442   -0.8543 C.ar    1  UNL11      -0.0432
      7 C          -0.5657    3.7949    0.2746 C.ar    1  UNL11      -0.0584
      8 C           0.2351    4.9029    0.3205 C.ar    1  UNL11      -0.0588
      9 C           0.8567    5.3033   -0.8573 C.ar    1  UNL11      -0.0264
     10 C           0.6446    4.5786   -2.0078 C.ar    1  UNL11       0.1237
     11 F           1.2480    4.9670   -3.1517 F       1  UNL11      -0.2055
     12 C          -0.1670    3.4656   -2.0273 C.ar    1  UNL11      -0.0232
     13 C           0.0622   -1.2853    1.6160 C.2     1  UNL11       0.1988
     14 N          -1.2937   -1.3665    1.5151 N.2     1  UNL11       0.0021
     15 N          -1.9933   -1.9167    2.4844 N.am    1  UNL11      -0.0351
     16 C          -1.4041   -2.4067    3.5855 C.2     1  UNL11       0.4383
     17 O          -2.1292   -2.9373    4.5061 O.2     1  UNL11      -0.2116
     18 C          -0.0444   -2.3356    3.7129 C.ar    1  UNL11       0.1009
     19 C           0.5538   -2.8070    4.8394 C.ar    1  UNL11      -0.0441
     20 C           1.9217   -2.7050    4.9731 C.ar    1  UNL11      -0.0608
     21 C           2.6892   -2.1262    3.9707 C.ar    1  UNL11      -0.0611
     22 C           2.0939   -1.6500    2.8333 C.ar    1  UNL11      -0.0513
     23 C           0.7286   -1.7585    2.7060 C.ar    1  UNL11       0.0282
     24 H           0.5720    0.7868   -1.0940 H       1  UNL11       0.1491
     25 H          -1.2738    1.1634    1.1439 H       1  UNL11       0.0465
     26 H          -1.8664   -0.1308   -0.0194 H       1  UNL11       0.0465
     27 H          -1.5853    1.4137   -1.8986 H       1  UNL11       0.0328
     28 H          -2.7288    2.1052   -0.7337 H       1  UNL11       0.0328
     29 H          -1.0430    3.4945    1.1979 H       1  UNL11       0.0620
     30 H           0.3823    5.4551    1.2492 H       1  UNL11       0.0619
     31 H           1.4975    6.1894   -0.8221 H       1  UNL11       0.0646
     32 H          -0.3435    2.8888   -2.9156 H       1  UNL11       0.0649
     33 H          -3.0503   -1.9881    2.4214 H       1  UNL11       0.4829
     34 H          -0.0414   -3.2635    5.6339 H       1  UNL11       0.0627
     35 H           2.4048   -3.0736    5.8563 H       1  UNL11       0.0618
     36 H           3.7704   -2.0380    4.0638 H       1  UNL11       0.0618
     37 H           2.7059   -1.1757    2.0922 H       1  UNL11       0.0624
@<TRIPOS>BOND
     1     1     2    2
     2     2     3   am
     3     2    13    1
     4     3     4    1
     5     3    24    1
     6     4     5    1
     7     4    25    1
     8     4    26    1
     9     5     6    1
    10     5    27    1
    11     5    28    1
    12     6     7   ar
    13     7     8   ar
    14     7    29    1
    15     8     9   ar
    16     8    30    1
    17     9    10   ar
    18     9    31    1
    19    10    11    1
    20    10    12   ar
    21    12     6   ar
    22    12    32    1
    23    13    14    2
    24    14    15    1
    25    15    16   am
    26    15    33    1
    27    16    17    2
    28    16    18    1
    29    18    19   ar
    30    19    20   ar
    31    19    34    1
    32    20    21   ar
    33    20    35    1
    34    21    22   ar
    35    21    36    1
    36    22    23   ar
    37    22    37    1
    38    23    13    1
    39    23    18   ar
@<TRIPOS>MOLECULE
*****
 37 39 0 0 0
SMALL
GASTEIGER

@<TRIPOS>ATOM
      1 O           1.9082   -1.0799    0.2697 O.2     1  UNL11      -0.2683
      2 C           0.7301   -0.6581    0.5028 C.2     1  UNL11       0.2688
      3 N           0.1173    0.3448   -0.2502 N.am    1  UNL11      -0.3096
      4 C          -1.2198    0.7862    0.0809 C.3     1  UNL11       0.0159
      5 C          -1.7533    0.0400    1.2553 C.3     1  UNL11      -0.0120
      6 C          -1.8121   -1.4265    1.0297 C.ar    1  UNL11      -0.0432
      7 C          -1.6713   -2.3469    2.0432 C.ar    1  UNL11      -0.0584
      8 C          -1.7194   -3.7037    1.8768 C.ar    1  UNL11      -0.0588
      9 C          -1.9254   -4.1928    0.5914 C.ar    1  UNL11      -0.0264
     10 C          -2.0709   -3.3041   -0.4493 C.ar    1  UNL11       0.1237
     11 F          -2.2711   -3.7785   -1.6977 F       1  UNL11      -0.2055
     12 C          -2.0185   -1.9413   -0.2549 C.ar    1  UNL11      -0.0232
     13 C           0.0622   -1.2853    1.6160 C.2     1  UNL11       0.1988
     14 N          -0.8327   -0.5013    2.2791 N.2     1  UNL11       0.0021
     15 N          -1.4881   -0.9824    3.3139 N.am    1  UNL11      -0.0351
     16 C          -1.2990   -2.2394    3.7428 C.2     1  UNL11       0.4383
     17 O          -1.9641   -2.6664    4.7578 O.2     1  UNL11      -0.2116
     18 C          -0.4045   -3.0467    3.0962 C.ar    1  UNL11       0.1009
     19 C          -0.1906   -4.3124    3.5447 C.ar    1  UNL11      -0.0441
     20 C           0.7342   -5.1100    2.9057 C.ar    1  UNL11      -0.0608
     21 C           1.4459   -4.6318    1.8131 C.ar    1  UNL11      -0.0611
     22 C           1.2353   -3.3586    1.3556 C.ar    1  UNL11      -0.0513
     23 C           0.3084   -2.5701    1.9967 C.ar    1  UNL11       0.0282
     24 H           0.5720    0.7868   -1.0940 H       1  UNL11       0.1491
     25 H          -1.9178    0.6701   -0.7992 H       1  UNL11       0.0465
     26 H          -1.1163    1.8802    0.3291 H       1  UNL11       0.0465
     27 H          -1.0045    0.1818    2.0894 H       1  UNL11       0.0328
     28 H          -2.6958    0.4369    1.6236 H       1  UNL11       0.0328
     29 H          -1.5105   -1.9801    3.0482 H       1  UNL11       0.0620
     30 H          -1.6003   -4.3810    2.7231 H       1  UNL11       0.0619
     31 H          -1.9641   -5.2778    0.4567 H       1  UNL11       0.0646
     32 H          -2.1300   -1.2340   -1.0550 H       1  UNL11       0.0649
     33 H          -2.1890   -0.3850    3.8414 H       1  UNL11       0.4829
     34 H          -0.7451   -4.6976    4.4038 H       1  UNL11       0.0627
     35 H           0.9110   -6.1099    3.2495 H       1  UNL11       0.0618
     36 H           2.1801   -5.2505    1.2999 H       1  UNL11       0.0618
     37 H           1.8242   -3.0032    0.5336 H       1  UNL11       0.0624
@<TRIPOS>BOND
     1     1     2    2
     2     2     3   am
     3     2    13    1
     4     3     4    1
     5     3    24    1
     6     4     5    1
     7     4    25    1
     8     4    26    1
     9     5     6    1
    10     5    27    1
    11     5    28    1
    12     6     7   ar
    13     7     8   ar
    14     7    29    1
    15     8     9   ar
    16     8    30    1
    17     9    10   ar
    18     9    31    1
    19    10    11    1
    20    10    12   ar
    21    12     6   ar
    22    12    32    1
    23    13    14    2
    24    14    15    1
    25    15    16   am
    26    15    33    1
    27    16    17    2
    28    16    18    1
    29    18    19   ar
    30    19    20   ar
    31    19    34    1
    32    20    21   ar
    33    20    35    1
    34    21    22   ar
    35    21    36    1
    36    22    23   ar
    37    22    37    1
    38    23    13    1
    39    23    18   ar
@<TRIPOS>MOLECULE
*****
 37 39 0 0 0
SMALL
GASTEIGER

@<TRIPOS>ATOM
      1 O           1.9082   -1.0799    0.2697 O.2     1  UNL11      -0.2683
      2 C           0.7301   -0.6581    0.5028 C.2     1  UNL11       0.2688
      3 N           0.1173    0.3448   -0.2502 N.am    1  UNL11      -0.3096
      4 C          -1.2198    0.7862    0.0809 C.3     1  UNL11       0.0159
      5 C          -2.1889   -0.3434    0.0074 C.3     1  UNL11      -0.0120
      6 C          -2.2472   -0.9678   -1.3386 C.ar    1  UNL11      -0.0432
      7 C          -2.5882   -0.2696   -2.4745 C.ar    1  UNL11      -0.0584
      8 C          -2.6531   -0.8074   -3.7306 C.ar    1  UNL11      -0.0588
      9 C          -2.3534   -2.1577   -3.8744 C.ar    1  UNL11      -0.0264
     10 C          -2.0078   -2.8905   -2.7620 C.ar    1  UNL11       0.1237
     11 F          -1.7167   -4.2017   -2.9011 F       1  UNL11      -0.2055
     12 C          -1.9497   -2.3246   -1.5073 C.ar    1  UNL11      -0.0232
     13 C           0.0622   -1.2853    1.6160 C.2     1  UNL11       0.1988
     14 N          -1.2937   -1.3665    1.5151 N.2     1  UNL11       0.0021
     15 N          -1.9933   -1.9167    2.4844 N.am    1  UNL11      -0.0351
     16 C          -1.4041   -2.4067    3.5855 C.2     1  UNL11       0.4383
     17 O          -2.1292   -2.9373    4.5061 O.2     1  UNL11      -0.2116
     18 C          -0.0444   -2.3356    3.7129 C.ar    1  UNL11       0.1009
     19 C           0.5538   -2.8070    4.8394 C.ar    1  UNL11      -0.0441
     20 C           1.9217   -2.7050    4.9731 C.ar    1  UNL11      -0.0608
     21 C           2.6892   -2.1262    3.9707 C.ar    1  UNL11      -0.0611
     22 C           2.0939   -1.6500    2.8333 C.ar    1  UNL11      -0.0513
     23 C           0.7286   -1.7585    2.7060 C.ar    1  UNL11       0.0282
     24 H           0.5720    0.7868   -1.0940 H       1  UNL11       0.1491
     25 H          -1.5529    1.6247   -0.5981 H       1  UNL11       0.0465
     26 H          -1.1502    1.1713    1.1373 H       1  UNL11       0.0465
     27 H          -1.7903   -1.1497    0.6911 H       1  UNL11       0.0328
     28 H          -3.1757   -0.0872    0.3842 H       1  UNL11       0.0328
     29 H          -2.8237    0.7818   -2.3770 H       1  UNL11       0.0620
     30 H          -2.9305   -0.1987   -4.5918 H       1  UNL11       0.0619
     31 H          -2.4049   -2.5893   -4.8784 H       1  UNL11       0.0646
     32 H          -1.6821   -2.8813   -0.6290 H       1  UNL11       0.0649
     33 H          -3.0503   -1.9881    2.4214 H       1  UNL11       0.4829
     34 H          -0.0414   -3.2635    5.6339 H       1  UNL11       0.0627
     35 H           2.4048   -3.0736    5.8563 H       1  UNL11       0.0618
     36 H           3.7704   -2.0380    4.0638 H       1  UNL11       0.0618
     37 H           2.7059   -1.1757    2.0922 H       1  UNL11       0.0624
@<TRIPOS>BOND
     1     1     2    2
     2     2     3   am
     3     2    13    1
     4     3     4    1
     5     3    24    1
     6     4     5    1
     7     4    25    1
     8     4    26    1
     9     5     6    1
    10     5    27    1
    11     5    28    1
    12     6     7   ar
    13     7     8   ar
    14     7    29    1
    15     8     9   ar
    16     8    30    1
    17     9    10   ar
    18     9    31    1
    19    10    11    1
    20    10    12   ar
    21    12     6   ar
    22    12    32    1
    23    13    14    2
    24    14    15    1
    25    15    16   am
    26    15    33    1
    27    16    17    2
    28    16    18    1
    29    18    19   ar
    30    19    20   ar
    31    19    34    1
    32    20    21   ar
    33    20    35    1
    34    21    22   ar
    35    21    36    1
    36    22    23   ar
    37    22    37    1
    38    23    13    1
    39    23    18   ar
@<TRIPOS>MOLECULE
*****
 37 39 0 0 0
SMALL
GASTEIGER

@<TRIPOS>ATOM
      1 O           1.9082   -1.0799    0.2697 O.2     1  UNL11      -0.2683
      2 C           0.7301   -0.6581    0.5028 C.2     1  UNL11       0.2688
      3 N           0.1173    0.3448   -0.2502 N.am    1  UNL11      -0.3096
      4 C          -1.2198    0.7862    0.0809 C.3     1  UNL11       0.0159
      5 C          -1.7533    0.0400    1.2553 C.3     1  UNL11      -0.0120
      6 C          -0.9354    0.2293    2.4801 C.ar    1  UNL11      -0.0432
      7 C           0.1164   -0.5933    2.8135 C.ar    1  UNL11      -0.0584
      8 C           0.8930   -0.4525    3.9307 C.ar    1  UNL11      -0.0588
      9 C           0.6017    0.5971    4.7952 C.ar    1  UNL11      -0.0264
     10 C          -0.4428    1.4420    4.4967 C.ar    1  UNL11       0.1237
     11 F          -0.7260    2.4614    5.3358 F       1  UNL11      -0.2055
     12 C          -1.2101    1.2785    3.3643 C.ar    1  UNL11      -0.0232
     13 C           0.0622   -1.2853    1.6160 C.2     1  UNL11       0.1988
     14 N           0.8770   -1.7269    2.6143 N.2     1  UNL11       0.0021
     15 N           0.3613   -2.3192    3.6702 N.am    1  UNL11      -0.0351
     16 C          -0.9614   -2.5050    3.7957 C.2     1  UNL11       0.4383
     17 O          -1.4197   -3.0876    4.8471 O.2     1  UNL11      -0.2116
     18 C          -1.8013   -2.0731    2.8067 C.ar    1  UNL11       0.1009
     19 C          -3.1400   -2.2838    2.9182 C.ar    1  UNL11      -0.0441
     20 C          -3.9771   -1.8720    1.9036 C.ar    1  UNL11      -0.0608
     21 C          -3.4650   -1.2474    0.7737 C.ar    1  UNL11      -0.0611
     22 C          -2.1182   -1.0313    0.6550 C.ar    1  UNL11      -0.0513
     23 C          -1.2899   -1.4423    1.6733 C.ar    1  UNL11       0.0282
     24 H           0.5720    0.7868   -1.0940 H       1  UNL11       0.1491
     25 H          -1.9178    0.6701   -0.7992 H       1  UNL11       0.0465
     26 H          -1.1163    1.8802    0.3291 H       1  UNL11       0.0465
     27 H          -2.7571    0.4998    1.4953 H       1  UNL11       0.0328
     28 H          -1.9430   -1.0097    1.0464 H       1  UNL11       0.0328
     29 H           0.3539   -1.4139    2.1497 H       1  UNL11       0.0620
     30 H           1.7138   -1.1398    4.1381 H       1  UNL11       0.0619
     31 H           1.2219    0.7110    5.6892 H       1  UNL11       0.0646
     32 H          -2.0282    1.9280    3.1161 H       1  UNL11       0.0649
     33 H           0.9819   -2.6689    4.4569 H       1  UNL11       0.4829
     34 H          -3.5525   -2.7748    3.8029 H       1  UNL11       0.0627
     35 H          -5.0343   -2.0318    1.9803 H       1  UNL11       0.0618
     36 H          -4.1145   -0.9182   -0.0356 H       1  UNL11       0.0618
     37 H          -1.7467   -0.5800   -0.2435 H       1  UNL11       0.0624
@<TRIPOS>BOND
     1     1     2    2
     2     2     3   am
     3     2    13    1
     4     3     4    1
     5     3    24    1
     6     4     5    1
     7     4    25    1
     8     4    26    1
     9     5     6    1
    10     5    27    1
    11     5    28    1
    12     6     7   ar
    13     7     8   ar
    14     7    29    1
    15     8     9   ar
    16     8    30    1
    17     9    10   ar
    18     9    31    1
    19    10    11    1
    20    10    12   ar
    21    12     6   ar
    22    12    32    1
    23    13    14    2
    24    14    15    1
    25    15    16   am
    26    15    33    1
    27    16    17    2
    28    16    18    1
    29    18    19   ar
    30    19    20   ar
    31    19    34    1
    32    20    21   ar
    33    20    35    1
    34    21    22   ar
    35    21    36    1
    36    22    23   ar
    37    22    37    1
    38    23    13    1
    39    23    18   ar
@<TRIPOS>MOLECULE
*****
 37 39 0 0 0
SMALL
GASTEIGER

@<TRIPOS>ATOM
      1 O           1.9082   -1.0799    0.2697 O.2     1  UNL11      -0.2683
      2 C           0.7301   -0.6581    0.5028 C.2     1  UNL11       0.2688
      3 N           0.1173    0.3448   -0.2502 N.am    1  UNL11      -0.3096
      4 C          -1.2198    0.7862    0.0809 C.3     1  UNL11       0.0159
      5 C          -1.7533    0.0400    1.2553 C.3     1  UNL11      -0.0120
      6 C          -1.8121   -1.4265    1.0297 C.ar    1  UNL11      -0.0432
      7 C          -2.9150   -2.0603    0.5042 C.ar    1  UNL11      -0.0584
      8 C          -3.0084   -3.4066    0.2813 C.ar    1  UNL11      -0.0588
      9 C          -1.9111   -4.1960    0.6082 C.ar    1  UNL11      -0.0264
     10 C          -0.7890   -3.5994    1.1362 C.ar    1  UNL11       0.1237
     11 F           0.2768   -4.3655    1.4537 F       1  UNL11      -0.2055
     12 C          -0.7203   -2.2404    1.3510 C.ar    1  UNL11      -0.0232
     13 C           0.0622   -1.2853    1.6160 C.2     1  UNL11       0.1988
     14 N          -1.2044   -0.8482    1.8607 N.2     1  UNL11       0.0021
     15 N          -1.8935   -1.3560    2.8602 N.am    1  UNL11      -0.0351
     16 C          -1.3796   -2.3042    3.6579 C.2     1  UNL11       0.4383
     17 O          -2.0919   -2.7720    4.6216 O.2     1  UNL11      -0.2116
     18 C          -0.1092   -2.7589    3.4355 C.ar    1  UNL11       0.1009
     19 C           0.4246   -3.7006    4.2584 C.ar    1  UNL11      -0.0441
     20 C           1.7160   -4.1323    4.0456 C.ar    1  UNL11      -0.0608
     21 C           2.4722   -3.6140    3.0022 C.ar    1  UNL11      -0.0611
     22 C           1.9410   -2.6661    2.1692 C.ar    1  UNL11      -0.0513
     23 C           0.6504   -2.2429    2.3862 C.ar    1  UNL11       0.0282
     24 H           0.5720    0.7868   -1.0940 H       1  UNL11       0.1491
     25 H          -1.9178    0.6701   -0.7992 H       1  UNL11       0.0465
     26 H          -1.1163    1.8802    0.3291 H       1  UNL11       0.0465
     27 H          -1.0045    0.1818    2.0894 H       1  UNL11       0.0328
     28 H          -2.6958    0.4369    1.6236 H       1  UNL11       0.0328
     29 H          -3.7757   -1.4581    0.2455 H       1  UNL11       0.0620
     30 H          -3.9127   -3.8480   -0.1388 H       1  UNL11       0.0619
     31 H          -1.9843   -5.2730    0.4305 H       1  UNL11       0.0646
     32 H           0.1469   -1.7586    1.7619 H       1  UNL11       0.0649
     33 H          -2.8817   -1.0268    3.0642 H       1  UNL11       0.4829
     34 H          -0.1620   -4.1140    5.0824 H       1  UNL11       0.0627
     35 H           2.1476   -4.8747    4.6872 H       1  UNL11       0.0618
     36 H           3.4938   -3.9450    2.8234 H       1  UNL11       0.0618
     37 H           2.5590   -2.2573    1.3946 H       1  UNL11       0.0624
@<TRIPOS>BOND
     1     1     2    2
     2     2     3   am
     3     2    13    1
     4     3     4    1
     5     3    24    1
     6     4     5    1
     7     4    25    1
     8     4    26    1
     9     5     6    1
    10     5    27    1
    11     5    28    1
    12     6     7   ar
    13     7     8   ar
    14     7    29    1
    15     8     9   ar
    16     8    30    1
    17     9    10   ar
    18     9    31    1
    19    10    11    1
    20    10    12   ar
    21    12     6   ar
    22    12    32    1
    23    13    14    2
    24    14    15    1
    25    15    16   am
    26    15    33    1
    27    16    17    2
    28    16    18    1
    29    18    19   ar
    30    19    20   ar
    31    19    34    1
    32    20    21   ar
    33    20    35    1
    34    21    22   ar
    35    21    36    1
    36    22    23   ar
    37    22    37    1
    38    23    13    1
    39    23    18   ar
@<TRIPOS>MOLECULE
*****
 37 39 0 0 0
SMALL
GASTEIGER

@<TRIPOS>ATOM
      1 O           1.9082   -1.0799    0.2697 O.2     1  UNL11      -0.2683
      2 C           0.7301   -0.6581    0.5028 C.2     1  UNL11       0.2688
      3 N           0.1173    0.3448   -0.2502 N.am    1  UNL11      -0.3096
      4 C          -1.2198    0.7862    0.0809 C.3     1  UNL11       0.0159
      5 C          -2.2426   -0.0086   -0.6558 C.3     1  UNL11      -0.0120
      6 C          -2.1893   -1.4575   -0.3350 C.ar    1  UNL11      -0.0432
      7 C          -1.0294   -2.1021    0.0298 C.ar    1  UNL11      -0.0584
      8 C          -0.9389   -3.4330    0.3328 C.ar    1  UNL11      -0.0588
      9 C          -2.1015   -4.1934    0.2685 C.ar    1  UNL11      -0.0264
     10 C          -3.2819   -3.5852   -0.0925 C.ar    1  UNL11       0.1237
     11 F          -4.4111   -4.3232   -0.1549 F       1  UNL11      -0.2055
     12 C          -3.3463   -2.2423   -0.3929 C.ar    1  UNL11      -0.0232
     13 C           0.0622   -1.2853    1.6160 C.2     1  UNL11       0.1988
     14 N           0.8770   -1.7269    2.6143 N.2     1  UNL11       0.0021
     15 N           0.3613   -2.3192    3.6702 N.am    1  UNL11      -0.0351
     16 C          -0.9614   -2.5050    3.7957 C.2     1  UNL11       0.4383
     17 O          -1.4197   -3.0876    4.8471 O.2     1  UNL11      -0.2116
     18 C          -1.8013   -2.0731    2.8067 C.ar    1  UNL11       0.1009
     19 C          -3.1400   -2.2838    2.9182 C.ar    1  UNL11      -0.0441
     20 C          -3.9771   -1.8720    1.9036 C.ar    1  UNL11      -0.0608
     21 C          -3.4650   -1.2474    0.7737 C.ar    1  UNL11      -0.0611
     22 C          -2.1182   -1.0313    0.6550 C.ar    1  UNL11      -0.0513
     23 C          -1.2899   -1.4423    1.6733 C.ar    1  UNL11       0.0282
     24 H           0.5720    0.7868   -1.0940 H       1  UNL11       0.1491
     25 H          -1.3533    1.8855   -0.1399 H       1  UNL11       0.0465
     26 H          -1.3201    0.6169    1.1901 H       1  UNL11       0.0465
     27 H          -3.2490    0.3413   -0.2799 H       1  UNL11       0.0328
     28 H          -2.2387    0.1752   -1.7271 H       1  UNL11       0.0328
     29 H          -0.1176   -1.5224    0.0837 H       1  UNL11       0.0620
     30 H           0.0127   -3.8843    0.6154 H       1  UNL11       0.0619
     31 H          -2.0306   -5.2580    0.5105 H       1  UNL11       0.0646
     32 H          -4.2584   -1.7518   -0.6762 H       1  UNL11       0.0649
     33 H           0.9819   -2.6689    4.4569 H       1  UNL11       0.4829
     34 H          -3.5525   -2.7748    3.8029 H       1  UNL11       0.0627
     35 H          -5.0343   -2.0318    1.9803 H       1  UNL11       0.0618
     36 H          -4.1145   -0.9182   -0.0356 H       1  UNL11       0.0618
     37 H          -1.7467   -0.5800   -0.2435 H       1  UNL11       0.0624
@<TRIPOS>BOND
     1     1     2    2
     2     2     3   am
     3     2    13    1
     4     3     4    1
     5     3    24    1
     6     4     5    1
     7     4    25    1
     8     4    26    1
     9     5     6    1
    10     5    27    1
    11     5    28    1
    12     6     7   ar
    13     7     8   ar
    14     7    29    1
    15     8     9   ar
    16     8    30    1
    17     9    10   ar
    18     9    31    1
    19    10    11    1
    20    10    12   ar
    21    12     6   ar
    22    12    32    1
    23    13    14    2
    24    14    15    1
    25    15    16   am
    26    15    33    1
    27    16    17    2
    28    16    18    1
    29    18    19   ar
    30    19    20   ar
    31    19    34    1
    32    20    21   ar
    33    20    35    1
    34    21    22   ar
    35    21    36    1
    36    22    23   ar
    37    22    37    1
    38    23    13    1
    39    23    18   ar
@<TRIPOS>MOLECULE
*****
 37 39 0 0 0
SMALL
GASTEIGER

@<TRIPOS>ATOM
      1 O           1.9082   -1.0799    0.2697 O.2     1  UNL11      -0.2683
      2 C           0.7301   -0.6581    0.5028 C.2     1  UNL11       0.2688
      3 N           0.1173    0.3448   -0.2502 N.am    1  UNL11      -0.3096
      4 C          -1.2198    0.7862    0.0809 C.3     1  UNL11       0.0159
      5 C          -1.7533    0.0400    1.2553 C.3     1  UNL11      -0.0120
      6 C          -1.8121   -1.4265    1.0297 C.ar    1  UNL11      -0.0432
      7 C          -0.9392   -2.0928    0.2002 C.ar    1  UNL11      -0.0584
      8 C          -0.9602   -3.4403   -0.0336 C.ar    1  UNL11      -0.0588
      9 C          -1.9331   -4.1957    0.6121 C.ar    1  UNL11      -0.0264
     10 C          -2.8248   -3.5660    1.4500 C.ar    1  UNL11       0.1237
     11 F          -3.7697   -4.2991    2.0773 F       1  UNL11      -0.2055
     12 C          -2.7823   -2.2065    1.6687 C.ar    1  UNL11      -0.0232
     13 C           0.0622   -1.2853    1.6160 C.2     1  UNL11       0.1988
     14 N          -1.2044   -0.8482    1.8607 N.2     1  UNL11       0.0021
     15 N          -1.8935   -1.3560    2.8602 N.am    1  UNL11      -0.0351
     16 C          -1.3796   -2.3042    3.6579 C.2     1  UNL11       0.4383
     17 O          -2.0919   -2.7720    4.6216 O.2     1  UNL11      -0.2116
     18 C          -0.1092   -2.7589    3.4355 C.ar    1  UNL11       0.1009
     19 C           0.4246   -3.7006    4.2584 C.ar    1  UNL11      -0.0441
     20 C           1.7160   -4.1323    4.0456 C.ar    1  UNL11      -0.0608
     21 C           2.4722   -3.6140    3.0022 C.ar    1  UNL11      -0.0611
     22 C           1.9410   -2.6661    2.1692 C.ar    1  UNL11      -0.0513
     23 C           0.6504   -2.2429    2.3862 C.ar    1  UNL11       0.0282
     24 H           0.5720    0.7868   -1.0940 H       1  UNL11       0.1491
     25 H          -1.9178    0.6701   -0.7992 H       1  UNL11       0.0465
     26 H          -1.1163    1.8802    0.3291 H       1  UNL11       0.0465
     27 H          -1.0045    0.1818    2.0894 H       1  UNL11       0.0328
     28 H          -2.6958    0.4369    1.6236 H       1  UNL11       0.0328
     29 H          -0.1773   -1.5173   -0.3085 H       1  UNL11       0.0620
     30 H          -0.2386   -3.9084   -0.7039 H       1  UNL11       0.0619
     31 H          -1.9511   -5.2736    0.4261 H       1  UNL11       0.0646
     32 H          -3.4698   -1.6992    2.3188 H       1  UNL11       0.0649
     33 H          -2.8817   -1.0268    3.0642 H       1  UNL11       0.4829
     34 H          -0.1620   -4.1140    5.0824 H       1  UNL11       0.0627
     35 H           2.1476   -4.8747    4.6872 H       1  UNL11       0.0618
     36 H           3.4938   -3.9450    2.8234 H       1  UNL11       0.0618
     37 H           2.5590   -2.2573    1.3946 H       1  UNL11       0.0624
@<TRIPOS>BOND
     1     1     2    2
     2     2     3   am
     3     2    13    1
     4     3     4    1
     5     3    24    1
     6     4     5    1
     7     4    25    1
     8     4    26    1
     9     5     6    1
    10     5    27    1
    11     5    28    1
    12     6     7   ar
    13     7     8   ar
    14     7    29    1
    15     8     9   ar
    16     8    30    1
    17     9    10   ar
    18     9    31    1
    19    10    11    1
    20    10    12   ar
    21    12     6   ar
    22    12    32    1
    23    13    14    2
    24    14    15    1
    25    15    16   am
    26    15    33    1
    27    16    17    2
    28    16    18    1
    29    18    19   ar
    30    19    20   ar
    31    19    34    1
    32    20    21   ar
    33    20    35    1
    34    21    22   ar
    35    21    36    1
    36    22    23   ar
    37    22    37    1
    38    23    13    1
    39    23    18   ar
@<TRIPOS>MOLECULE
*****
 37 39 0 0 0
SMALL
GASTEIGER

@<TRIPOS>ATOM
      1 O           1.9082   -1.0799    0.2697 O.2     1  UNL11      -0.2683
      2 C           0.7301   -0.6581    0.5028 C.2     1  UNL11       0.2688
      3 N           0.1173    0.3448   -0.2502 N.am    1  UNL11      -0.3096
      4 C          -1.2198    0.7862    0.0809 C.3     1  UNL11       0.0159
      5 C          -1.1843    1.9183    1.0493 C.3     1  UNL11      -0.0120
      6 C          -0.5034    1.5688    2.3218 C.ar    1  UNL11      -0.0432
      7 C          -0.9270    0.5487    3.1428 C.ar    1  UNL11      -0.0584
      8 C          -0.3281    0.1959    4.3209 C.ar    1  UNL11      -0.0588
      9 C           0.7906    0.9182    4.7217 C.ar    1  UNL11      -0.0264
     10 C           1.2454    1.9461    3.9277 C.ar    1  UNL11       0.1237
     11 F           2.3317    2.6478    4.3164 F       1  UNL11      -0.2055
     12 C           0.6238    2.2816    2.7450 C.ar    1  UNL11      -0.0232
     13 C           0.0622   -1.2853    1.6160 C.2     1  UNL11       0.1988
     14 N           0.4257   -2.5739    1.8664 N.2     1  UNL11       0.0021
     15 N          -0.1333   -3.2338    2.8582 N.am    1  UNL11      -0.0351
     16 C          -1.0642   -2.6688    3.6417 C.2     1  UNL11       0.4383
     17 O          -1.5813   -3.3528    4.6007 O.2     1  UNL11      -0.2116
     18 C          -1.4488   -1.3771    3.4104 C.ar    1  UNL11       0.1009
     19 C          -2.4114   -0.8101    4.1855 C.ar    1  UNL11      -0.0441
     20 C          -2.8146    0.4823    3.9274 C.ar    1  UNL11      -0.0608
     21 C          -2.2479    1.2054    2.8857 C.ar    1  UNL11      -0.0611
     22 C          -1.2777    0.6412    2.1015 C.ar    1  UNL11      -0.0513
     23 C          -0.8785   -0.6479    2.3676 C.ar    1  UNL11       0.0282
     24 H           0.5720    0.7868   -1.0940 H       1  UNL11       0.1491
     25 H          -1.8373   -0.0610    0.5006 H       1  UNL11       0.0465
     26 H          -1.6694    1.1231   -0.8955 H       1  UNL11       0.0465
     27 H          -0.5408    2.7192    0.5791 H       1  UNL11       0.0328
     28 H          -2.1583    2.3711    1.2157 H       1  UNL11       0.0328
     29 H          -1.7963   -0.0214    2.8430 H       1  UNL11       0.0620
     30 H          -0.7140   -0.6244    4.9270 H       1  UNL11       0.0619
     31 H           1.2707    0.6372    5.6638 H       1  UNL11       0.0646
     32 H           0.9651    3.0802    2.1136 H       1  UNL11       0.0649
     33 H           0.1387   -4.2382    3.0669 H       1  UNL11       0.4829
     34 H          -2.8637   -1.3709    5.0070 H       1  UNL11       0.0627
     35 H          -3.5721    0.9404    4.5320 H       1  UNL11       0.0618
     36 H          -2.5579    2.2265    2.6699 H       1  UNL11       0.0618
     37 H          -0.8837    1.2090    1.2822 H       1  UNL11       0.0624
@<TRIPOS>BOND
     1     1     2    2
     2     2     3   am
     3     2    13    1
     4     3     4    1
     5     3    24    1
     6     4     5    1
     7     4    25    1
     8     4    26    1
     9     5     6    1
    10     5    27    1
    11     5    28    1
    12     6     7   ar
    13     7     8   ar
    14     7    29    1
    15     8     9   ar
    16     8    30    1
    17     9    10   ar
    18     9    31    1
    19    10    11    1
    20    10    12   ar
    21    12     6   ar
    22    12    32    1
    23    13    14    2
    24    14    15    1
    25    15    16   am
    26    15    33    1
    27    16    17    2
    28    16    18    1
    29    18    19   ar
    30    19    20   ar
    31    19    34    1
    32    20    21   ar
    33    20    35    1
    34    21    22   ar
    35    21    36    1
    36    22    23   ar
    37    22    37    1
    38    23    13    1
    39    23    18   ar
@<TRIPOS>MOLECULE
*****
 37 39 0 0 0
SMALL
GASTEIGER

@<TRIPOS>ATOM
      1 O           1.9082   -1.0799    0.2697 O.2     1  UNL11      -0.2683
      2 C           0.7301   -0.6581    0.5028 C.2     1  UNL11       0.2688
      3 N           0.1173    0.3448   -0.2502 N.am    1  UNL11      -0.3096
      4 C          -1.2198    0.7862    0.0809 C.3     1  UNL11       0.0159
      5 C          -1.6806    1.8465   -0.8593 C.3     1  UNL11      -0.0120
      6 C          -1.7299    1.3859   -2.2701 C.ar    1  UNL11      -0.0432
      7 C          -0.8917    0.4163   -2.7716 C.ar    1  UNL11      -0.0584
      8 C          -0.9056   -0.0350   -4.0628 C.ar    1  UNL11      -0.0588
      9 C          -1.8327    0.5244   -4.9356 C.ar    1  UNL11      -0.0264
     10 C          -2.6886    1.4971   -4.4720 C.ar    1  UNL11       0.1237
     11 F          -3.5891    2.0405   -5.3190 F       1  UNL11      -0.2055
     12 C          -2.6543    1.9343   -3.1660 C.ar    1  UNL11      -0.0232
     13 C           0.0622   -1.2853    1.6160 C.2     1  UNL11       0.1988
     14 N          -1.2937   -1.3665    1.5151 N.2     1  UNL11       0.0021
     15 N          -1.9933   -1.9167    2.4844 N.am    1  UNL11      -0.0351
     16 C          -1.4041   -2.4067    3.5855 C.2     1  UNL11       0.4383
     17 O          -2.1292   -2.9373    4.5061 O.2     1  UNL11      -0.2116
     18 C          -0.0444   -2.3356    3.7129 C.ar    1  UNL11       0.1009
     19 C           0.5538   -2.8070    4.8394 C.ar    1  UNL11      -0.0441
     20 C           1.9217   -2.7050    4.9731 C.ar    1  UNL11      -0.0608
     21 C           2.6892   -2.1262    3.9707 C.ar    1  UNL11      -0.0611
     22 C           2.0939   -1.6500    2.8333 C.ar    1  UNL11      -0.0513
     23 C           0.7286   -1.7585    2.7060 C.ar    1  UNL11       0.0282
     24 H           0.5720    0.7868   -1.0940 H       1  UNL11       0.1491
     25 H          -1.2738    1.1634    1.1439 H       1  UNL11       0.0465
     26 H          -1.8664   -0.1308   -0.0194 H       1  UNL11       0.0465
     27 H          -2.7528    2.0723   -0.5837 H       1  UNL11       0.0328
     28 H          -1.1367    2.7814   -0.7514 H       1  UNL11       0.0328
     29 H          -0.1656   -0.0273   -2.1035 H       1  UNL11       0.0620
     30 H          -0.2132   -0.8076   -4.3984 H       1  UNL11       0.0619
     31 H          -1.8450    0.1645   -5.9687 H       1  UNL11       0.0646
     32 H          -3.3144    2.6919   -2.7877 H       1  UNL11       0.0649
     33 H          -3.0503   -1.9881    2.4214 H       1  UNL11       0.4829
     34 H          -0.0414   -3.2635    5.6339 H       1  UNL11       0.0627
     35 H           2.4048   -3.0736    5.8563 H       1  UNL11       0.0618
     36 H           3.7704   -2.0380    4.0638 H       1  UNL11       0.0618
     37 H           2.7059   -1.1757    2.0922 H       1  UNL11       0.0624
@<TRIPOS>BOND
     1     1     2    2
     2     2     3   am
     3     2    13    1
     4     3     4    1
     5     3    24    1
     6     4     5    1
     7     4    25    1
     8     4    26    1
     9     5     6    1
    10     5    27    1
    11     5    28    1
    12     6     7   ar
    13     7     8   ar
    14     7    29    1
    15     8     9   ar
    16     8    30    1
    17     9    10   ar
    18     9    31    1
    19    10    11    1
    20    10    12   ar
    21    12     6   ar
    22    12    32    1
    23    13    14    2
    24    14    15    1
    25    15    16   am
    26    15    33    1
    27    16    17    2
    28    16    18    1
    29    18    19   ar
    30    19    20   ar
    31    19    34    1
    32    20    21   ar
    33    20    35    1
    34    21    22   ar
    35    21    36    1
    36    22    23   ar
    37    22    37    1
    38    23    13    1
    39    23    18   ar
@<TRIPOS>MOLECULE
*****
 37 39 0 0 0
SMALL
GASTEIGER

@<TRIPOS>ATOM
      1 O           1.9082   -1.0799    0.2697 O.2     1  UNL11      -0.2683
      2 C           0.7301   -0.6581    0.5028 C.2     1  UNL11       0.2688
      3 N           0.1173    0.3448   -0.2502 N.am    1  UNL11      -0.3096
      4 C          -1.2198    0.7862    0.0809 C.3     1  UNL11       0.0159
      5 C          -1.7533    0.0400    1.2553 C.3     1  UNL11      -0.0120
      6 C          -3.1328    0.4495    1.6217 C.ar    1  UNL11      -0.0432
      7 C          -3.4019    1.4582    2.5185 C.ar    1  UNL11      -0.0584
      8 C          -4.6564    1.8647    2.8819 C.ar    1  UNL11      -0.0588
      9 C          -5.7417    1.2138    2.3052 C.ar    1  UNL11      -0.0264
     10 C          -5.5139    0.1995    1.4034 C.ar    1  UNL11       0.1237
     11 F          -6.5674   -0.4328    0.8431 F       1  UNL11      -0.2055
     12 C          -4.2398   -0.1910    1.0542 C.ar    1  UNL11      -0.0232
     13 C           0.0622   -1.2853    1.6160 C.2     1  UNL11       0.1988
     14 N           0.4257   -2.5739    1.8664 N.2     1  UNL11       0.0021
     15 N          -0.1333   -3.2338    2.8582 N.am    1  UNL11      -0.0351
     16 C          -1.0642   -2.6688    3.6417 C.2     1  UNL11       0.4383
     17 O          -1.5813   -3.3528    4.6007 O.2     1  UNL11      -0.2116
     18 C          -1.4488   -1.3771    3.4104 C.ar    1  UNL11       0.1009
     19 C          -2.4114   -0.8101    4.1855 C.ar    1  UNL11      -0.0441
     20 C          -2.8146    0.4823    3.9274 C.ar    1  UNL11      -0.0608
     21 C          -2.2479    1.2054    2.8857 C.ar    1  UNL11      -0.0611
     22 C          -1.2777    0.6412    2.1015 C.ar    1  UNL11      -0.0513
     23 C          -0.8785   -0.6479    2.3676 C.ar    1  UNL11       0.0282
     24 H           0.5720    0.7868   -1.0940 H       1  UNL11       0.1491
     25 H          -1.9178    0.6701   -0.7992 H       1  UNL11       0.0465
     26 H          -1.1163    1.8802    0.3291 H       1  UNL11       0.0465
     27 H          -1.8402   -1.0396    0.9337 H       1  UNL11       0.0328
     28 H          -1.0818    0.0485    2.1100 H       1  UNL11       0.0328
     29 H          -2.5669    1.9729    2.9747 H       1  UNL11       0.0620
     30 H          -4.8025    2.6723    3.5999 H       1  UNL11       0.0619
     31 H          -6.7457    1.5378    2.5948 H       1  UNL11       0.0646
     32 H          -4.0441   -0.9800    0.3527 H       1  UNL11       0.0649
     33 H           0.1387   -4.2382    3.0669 H       1  UNL11       0.4829
     34 H          -2.8637   -1.3709    5.0070 H       1  UNL11       0.0627
     35 H          -3.5721    0.9404    4.5320 H       1  UNL11       0.0618
     36 H          -2.5579    2.2265    2.6699 H       1  UNL11       0.0618
     37 H          -0.8837    1.2090    1.2822 H       1  UNL11       0.0624
@<TRIPOS>BOND
     1     1     2    2
     2     2     3   am
     3     2    13    1
     4     3     4    1
     5     3    24    1
     6     4     5    1
     7     4    25    1
     8     4    26    1
     9     5     6    1
    10     5    27    1
    11     5    28    1
    12     6     7   ar
    13     7     8   ar
    14     7    29    1
    15     8     9   ar
    16     8    30    1
    17     9    10   ar
    18     9    31    1
    19    10    11    1
    20    10    12   ar
    21    12     6   ar
    22    12    32    1
    23    13    14    2
    24    14    15    1
    25    15    16   am
    26    15    33    1
    27    16    17    2
    28    16    18    1
    29    18    19   ar
    30    19    20   ar
    31    19    34    1
    32    20    21   ar
    33    20    35    1
    34    21    22   ar
    35    21    36    1
    36    22    23   ar
    37    22    37    1
    38    23    13    1
    39    23    18   ar
@<TRIPOS>MOLECULE
*****
 37 39 0 0 0
SMALL
GASTEIGER

@<TRIPOS>ATOM
      1 O           1.9082   -1.0799    0.2697 O.2     1  UNL11      -0.2683
      2 C           0.7301   -0.6581    0.5028 C.2     1  UNL11       0.2688
      3 N           0.1173    0.3448   -0.2502 N.am    1  UNL11      -0.3096
      4 C          -1.2198    0.7862    0.0809 C.3     1  UNL11       0.0159
      5 C          -1.1843    1.9183    1.0493 C.3     1  UNL11      -0.0120
      6 C          -0.5034    1.5688    2.3218 C.ar    1  UNL11      -0.0432
      7 C           0.8135    1.1738    2.3832 C.ar    1  UNL11      -0.0584
      8 C           1.4761    0.8441    3.5335 C.ar    1  UNL11      -0.0588
      9 C           0.7711    0.9117    4.7304 C.ar    1  UNL11      -0.0264
     10 C          -0.5482    1.3026    4.7107 C.ar    1  UNL11       0.1237
     11 F          -1.2332    1.3685    5.8726 F       1  UNL11      -0.2055
     12 C          -1.1928    1.6296    3.5379 C.ar    1  UNL11      -0.0232
     13 C           0.0622   -1.2853    1.6160 C.2     1  UNL11       0.1988
     14 N           0.4257   -2.5739    1.8664 N.2     1  UNL11       0.0021
     15 N          -0.1333   -3.2338    2.8582 N.am    1  UNL11      -0.0351
     16 C          -1.0642   -2.6688    3.6417 C.2     1  UNL11       0.4383
     17 O          -1.5813   -3.3528    4.6007 O.2     1  UNL11      -0.2116
     18 C          -1.4488   -1.3771    3.4104 C.ar    1  UNL11       0.1009
     19 C          -2.4114   -0.8101    4.1855 C.ar    1  UNL11      -0.0441
     20 C          -2.8146    0.4823    3.9274 C.ar    1  UNL11      -0.0608
     21 C          -2.2479    1.2054    2.8857 C.ar    1  UNL11      -0.0611
     22 C          -1.2777    0.6412    2.1015 C.ar    1  UNL11      -0.0513
     23 C          -0.8785   -0.6479    2.3676 C.ar    1  UNL11       0.0282
     24 H           0.5720    0.7868   -1.0940 H       1  UNL11       0.1491
     25 H          -1.8373   -0.0610    0.5006 H       1  UNL11       0.0465
     26 H          -1.6694    1.1231   -0.8955 H       1  UNL11       0.0465
     27 H          -0.5408    2.7192    0.5791 H       1  UNL11       0.0328
     28 H          -2.1583    2.3711    1.2157 H       1  UNL11       0.0328
     29 H           1.3738    1.1168    1.4595 H       1  UNL11       0.0620
     30 H           2.5226    0.5382    3.5145 H       1  UNL11       0.0619
     31 H           1.2997    0.6483    5.6513 H       1  UNL11       0.0646
     32 H          -2.2212    1.9364    3.5043 H       1  UNL11       0.0649
     33 H           0.1387   -4.2382    3.0669 H       1  UNL11       0.4829
     34 H          -2.8637   -1.3709    5.0070 H       1  UNL11       0.0627
     35 H          -3.5721    0.9404    4.5320 H       1  UNL11       0.0618
     36 H          -2.5579    2.2265    2.6699 H       1  UNL11       0.0618
     37 H          -0.8837    1.2090    1.2822 H       1  UNL11       0.0624
@<TRIPOS>BOND
     1     1     2    2
     2     2     3   am
     3     2    13    1
     4     3     4    1
     5     3    24    1
     6     4     5    1
     7     4    25    1
     8     4    26    1
     9     5     6    1
    10     5    27    1
    11     5    28    1
    12     6     7   ar
    13     7     8   ar
    14     7    29    1
    15     8     9   ar
    16     8    30    1
    17     9    10   ar
    18     9    31    1
    19    10    11    1
    20    10    12   ar
    21    12     6   ar
    22    12    32    1
    23    13    14    2
    24    14    15    1
    25    15    16   am
    26    15    33    1
    27    16    17    2
    28    16    18    1
    29    18    19   ar
    30    19    20   ar
    31    19    34    1
    32    20    21   ar
    33    20    35    1
    34    21    22   ar
    35    21    36    1
    36    22    23   ar
    37    22    37    1
    38    23    13    1
    39    23    18   ar
@<TRIPOS>MOLECULE
*****
 37 39 0 0 0
SMALL
GASTEIGER

@<TRIPOS>ATOM
      1 O           1.9082   -1.0799    0.2697 O.2     1  UNL11      -0.2683
      2 C           0.7301   -0.6581    0.5028 C.2     1  UNL11       0.2688
      3 N           0.1173    0.3448   -0.2502 N.am    1  UNL11      -0.3096
      4 C          -1.2198    0.7862    0.0809 C.3     1  UNL11       0.0159
      5 C          -1.2356    2.2382    0.4155 C.3     1  UNL11      -0.0120
      6 C          -0.7789    3.0949   -0.7081 C.ar    1  UNL11      -0.0432
      7 C           0.5367    3.4566   -0.8880 C.ar    1  UNL11      -0.0584
      8 C           0.9970    4.2426   -1.9085 C.ar    1  UNL11      -0.0588
      9 C           0.0712    4.7126   -2.8337 C.ar    1  UNL11      -0.0264
     10 C          -1.2544    4.3728   -2.6882 C.ar    1  UNL11       0.1237
     11 F          -2.1538    4.8289   -3.5863 F       1  UNL11      -0.2055
     12 C          -1.6925    3.5791   -1.6509 C.ar    1  UNL11      -0.0232
     13 C           0.0622   -1.2853    1.6160 C.2     1  UNL11       0.1988
     14 N           0.8770   -1.7269    2.6143 N.2     1  UNL11       0.0021
     15 N           0.3613   -2.3192    3.6702 N.am    1  UNL11      -0.0351
     16 C          -0.9614   -2.5050    3.7957 C.2     1  UNL11       0.4383
     17 O          -1.4197   -3.0876    4.8471 O.2     1  UNL11      -0.2116
     18 C          -1.8013   -2.0731    2.8067 C.ar    1  UNL11       0.1009
     19 C          -3.1400   -2.2838    2.9182 C.ar    1  UNL11      -0.0441
     20 C          -3.9771   -1.8720    1.9036 C.ar    1  UNL11      -0.0608
     21 C          -3.4650   -1.2474    0.7737 C.ar    1  UNL11      -0.0611
     22 C          -2.1182   -1.0313    0.6550 C.ar    1  UNL11      -0.0513
     23 C          -1.2899   -1.4423    1.6733 C.ar    1  UNL11       0.0282
     24 H           0.5720    0.7868   -1.0940 H       1  UNL11       0.1491
     25 H          -1.6466    0.1883    0.9385 H       1  UNL11       0.0465
     26 H          -1.8318    0.5934   -0.8451 H       1  UNL11       0.0465
     27 H          -2.3187    2.5155    0.5783 H       1  UNL11       0.0328
     28 H          -0.7206    2.4700    1.3442 H       1  UNL11       0.0328
     29 H           1.2676    3.0979   -0.1755 H       1  UNL11       0.0620
     30 H           2.0547    4.4935   -1.9951 H       1  UNL11       0.0619
     31 H           0.4378    5.3414   -3.6504 H       1  UNL11       0.0646
     32 H          -2.7224    3.3044   -1.5223 H       1  UNL11       0.0649
     33 H           0.9819   -2.6689    4.4569 H       1  UNL11       0.4829
     34 H          -3.5525   -2.7748    3.8029 H       1  UNL11       0.0627
     35 H          -5.0343   -2.0318    1.9803 H       1  UNL11       0.0618
     36 H          -4.1145   -0.9182   -0.0356 H       1  UNL11       0.0618
     37 H          -1.7467   -0.5800   -0.2435 H       1  UNL11       0.0624
@<TRIPOS>BOND
     1     1     2    2
     2     2     3   am
     3     2    13    1
     4     3     4    1
     5     3    24    1
     6     4     5    1
     7     4    25    1
     8     4    26    1
     9     5     6    1
    10     5    27    1
    11     5    28    1
    12     6     7   ar
    13     7     8   ar
    14     7    29    1
    15     8     9   ar
    16     8    30    1
    17     9    10   ar
    18     9    31    1
    19    10    11    1
    20    10    12   ar
    21    12     6   ar
    22    12    32    1
    23    13    14    2
    24    14    15    1
    25    15    16   am
    26    15    33    1
    27    16    17    2
    28    16    18    1
    29    18    19   ar
    30    19    20   ar
    31    19    34    1
    32    20    21   ar
    33    20    35    1
    34    21    22   ar
    35    21    36    1
    36    22    23   ar
    37    22    37    1
    38    23    13    1
    39    23    18   ar
@<TRIPOS>MOLECULE
*****
 37 39 0 0 0
SMALL
GASTEIGER

@<TRIPOS>ATOM
      1 O           1.9082   -1.0799    0.2697 O.2     1  UNL11      -0.2683
      2 C           0.7301   -0.6581    0.5028 C.2     1  UNL11       0.2688
      3 N           0.1173    0.3448   -0.2502 N.am    1  UNL11      -0.3096
      4 C          -1.2198    0.7862    0.0809 C.3     1  UNL11       0.0159
      5 C          -1.2356    2.2382    0.4155 C.3     1  UNL11      -0.0120
      6 C          -0.3584    2.5757    1.5651 C.ar    1  UNL11      -0.0432
      7 C           0.3856    1.6358    2.2413 C.ar    1  UNL11      -0.0584
      8 C           1.2044    1.9058    3.3032 C.ar    1  UNL11      -0.0588
      9 C           1.2944    3.2250    3.7340 C.ar    1  UNL11      -0.0264
     10 C           0.5657    4.1944    3.0835 C.ar    1  UNL11       0.1237
     11 F           0.6528    5.4756    3.5014 F       1  UNL11      -0.2055
     12 C          -0.2521    3.8961    2.0158 C.ar    1  UNL11      -0.0232
     13 C           0.0622   -1.2853    1.6160 C.2     1  UNL11       0.1988
     14 N          -0.8327   -0.5013    2.2791 N.2     1  UNL11       0.0021
     15 N          -1.4881   -0.9824    3.3139 N.am    1  UNL11      -0.0351
     16 C          -1.2990   -2.2394    3.7428 C.2     1  UNL11       0.4383
     17 O          -1.9641   -2.6664    4.7578 O.2     1  UNL11      -0.2116
     18 C          -0.4045   -3.0467    3.0962 C.ar    1  UNL11       0.1009
     19 C          -0.1906   -4.3124    3.5447 C.ar    1  UNL11      -0.0441
     20 C           0.7342   -5.1100    2.9057 C.ar    1  UNL11      -0.0608
     21 C           1.4459   -4.6318    1.8131 C.ar    1  UNL11      -0.0611
     22 C           1.2353   -3.3586    1.3556 C.ar    1  UNL11      -0.0513
     23 C           0.3084   -2.5701    1.9967 C.ar    1  UNL11       0.0282
     24 H           0.5720    0.7868   -1.0940 H       1  UNL11       0.1491
     25 H          -1.6466    0.1883    0.9385 H       1  UNL11       0.0465
     26 H          -1.8318    0.5934   -0.8451 H       1  UNL11       0.0465
     27 H          -0.7826    2.7739   -0.4702 H       1  UNL11       0.0328
     28 H          -2.2385    2.6406    0.5324 H       1  UNL11       0.0328
     29 H           0.3249    0.6056    1.9167 H       1  UNL11       0.0620
     30 H           1.7686    1.1140    3.7969 H       1  UNL11       0.0619
     31 H           1.9489    3.4426    4.5832 H       1  UNL11       0.0646
     32 H          -0.8274    4.6395    1.4970 H       1  UNL11       0.0649
     33 H          -2.1890   -0.3850    3.8414 H       1  UNL11       0.4829
     34 H          -0.7451   -4.6976    4.4038 H       1  UNL11       0.0627
     35 H           0.9110   -6.1099    3.2495 H       1  UNL11       0.0618
     36 H           2.1801   -5.2505    1.2999 H       1  UNL11       0.0618
     37 H           1.8242   -3.0032    0.5336 H       1  UNL11       0.0624
@<TRIPOS>BOND
     1     1     2    2
     2     2     3   am
     3     2    13    1
     4     3     4    1
     5     3    24    1
     6     4     5    1
     7     4    25    1
     8     4    26    1
     9     5     6    1
    10     5    27    1
    11     5    28    1
    12     6     7   ar
    13     7     8   ar
    14     7    29    1
    15     8     9   ar
    16     8    30    1
    17     9    10   ar
    18     9    31    1
    19    10    11    1
    20    10    12   ar
    21    12     6   ar
    22    12    32    1
    23    13    14    2
    24    14    15    1
    25    15    16   am
    26    15    33    1
    27    16    17    2
    28    16    18    1
    29    18    19   ar
    30    19    20   ar
    31    19    34    1
    32    20    21   ar
    33    20    35    1
    34    21    22   ar
    35    21    36    1
    36    22    23   ar
    37    22    37    1
    38    23    13    1
    39    23    18   ar
@<TRIPOS>MOLECULE
*****
 37 39 0 0 0
SMALL
GASTEIGER

@<TRIPOS>ATOM
      1 O           1.9082   -1.0799    0.2697 O.2     1  UNL11      -0.2683
      2 C           0.7301   -0.6581    0.5028 C.2     1  UNL11       0.2688
      3 N           0.1173    0.3448   -0.2502 N.am    1  UNL11      -0.3096
      4 C          -1.2198    0.7862    0.0809 C.3     1  UNL11       0.0159
      5 C          -1.4121    2.2207   -0.2739 C.3     1  UNL11      -0.0120
      6 C          -1.2312    2.4865   -1.7236 C.ar    1  UNL11      -0.0432
      7 C          -0.0171    2.8217   -2.2783 C.ar    1  UNL11      -0.0584
      8 C           0.1906    3.0736   -3.6066 C.ar    1  UNL11      -0.0588
      9 C          -0.9022    2.9856   -4.4622 C.ar    1  UNL11      -0.0264
     10 C          -2.1336    2.6529   -3.9457 C.ar    1  UNL11       0.1237
     11 F          -3.1950    2.5673   -4.7761 F       1  UNL11      -0.2055
     12 C          -2.3163    2.4038   -2.6031 C.ar    1  UNL11      -0.0232
     13 C           0.0622   -1.2853    1.6160 C.2     1  UNL11       0.1988
     14 N          -0.8327   -0.5013    2.2791 N.2     1  UNL11       0.0021
     15 N          -1.4881   -0.9824    3.3139 N.am    1  UNL11      -0.0351
     16 C          -1.2990   -2.2394    3.7428 C.2     1  UNL11       0.4383
     17 O          -1.9641   -2.6664    4.7578 O.2     1  UNL11      -0.2116
     18 C          -0.4045   -3.0467    3.0962 C.ar    1  UNL11       0.1009
     19 C          -0.1906   -4.3124    3.5447 C.ar    1  UNL11      -0.0441
     20 C           0.7342   -5.1100    2.9057 C.ar    1  UNL11      -0.0608
     21 C           1.4459   -4.6318    1.8131 C.ar    1  UNL11      -0.0611
     22 C           1.2353   -3.3586    1.3556 C.ar    1  UNL11      -0.0513
     23 C           0.3084   -2.5701    1.9967 C.ar    1  UNL11       0.0282
     24 H           0.5720    0.7868   -1.0940 H       1  UNL11       0.1491
     25 H          -1.4429    0.6267    1.1763 H       1  UNL11       0.0465
     26 H          -1.9053    0.1377   -0.5345 H       1  UNL11       0.0465
     27 H          -2.4962    2.4584   -0.0620 H       1  UNL11       0.0328
     28 H          -0.8272    2.8974    0.3437 H       1  UNL11       0.0328
     29 H           0.8415    2.8936   -1.6240 H       1  UNL11       0.0620
     30 H           1.1798    3.3349   -3.9838 H       1  UNL11       0.0619
     31 H          -0.7376    3.1869   -5.5249 H       1  UNL11       0.0646
     32 H          -3.2695    2.1431   -2.1834 H       1  UNL11       0.0649
     33 H          -2.1890   -0.3850    3.8414 H       1  UNL11       0.4829
     34 H          -0.7451   -4.6976    4.4038 H       1  UNL11       0.0627
     35 H           0.9110   -6.1099    3.2495 H       1  UNL11       0.0618
     36 H           2.1801   -5.2505    1.2999 H       1  UNL11       0.0618
     37 H           1.8242   -3.0032    0.5336 H       1  UNL11       0.0624
@<TRIPOS>BOND
     1     1     2    2
     2     2     3   am
     3     2    13    1
     4     3     4    1
     5     3    24    1
     6     4     5    1
     7     4    25    1
     8     4    26    1
     9     5     6    1
    10     5    27    1
    11     5    28    1
    12     6     7   ar
    13     7     8   ar
    14     7    29    1
    15     8     9   ar
    16     8    30    1
    17     9    10   ar
    18     9    31    1
    19    10    11    1
    20    10    12   ar
    21    12     6   ar
    22    12    32    1
    23    13    14    2
    24    14    15    1
    25    15    16   am
    26    15    33    1
    27    16    17    2
    28    16    18    1
    29    18    19   ar
    30    19    20   ar
    31    19    34    1
    32    20    21   ar
    33    20    35    1
    34    21    22   ar
    35    21    36    1
    36    22    23   ar
    37    22    37    1
    38    23    13    1
    39    23    18   ar
@<TRIPOS>MOLECULE
*****
 37 39 0 0 0
SMALL
GASTEIGER

@<TRIPOS>ATOM
      1 O           0.1668   -1.2252    1.4933 O.2     1  UNL11      -0.2683
      2 C           0.7301   -0.6581    0.5028 C.2     1  UNL11       0.2688
      3 N           0.1173    0.3448   -0.2502 N.am    1  UNL11      -0.3096
      4 C          -1.2198    0.7862    0.0809 C.3     1  UNL11       0.0159
      5 C          -1.7533    0.0400    1.2553 C.3     1  UNL11      -0.0120
      6 C          -0.9354    0.2293    2.4801 C.ar    1  UNL11      -0.0432
      7 C          -1.4665    0.1917    3.7492 C.ar    1  UNL11      -0.0584
      8 C          -0.7479    0.3609    4.9008 C.ar    1  UNL11      -0.0588
      9 C           0.6192    0.5879    4.7849 C.ar    1  UNL11      -0.0264
     10 C           1.1881    0.6326    3.5326 C.ar    1  UNL11       0.1237
     11 F           2.5156    0.8529    3.4196 F       1  UNL11      -0.2055
     12 C           0.4418    0.4589    2.3878 C.ar    1  UNL11      -0.0232
     13 C           2.0577   -1.1306    0.1981 C.2     1  UNL11       0.1988
     14 N           2.7722   -1.5948    1.2608 N.2     1  UNL11       0.0021
     15 N           3.9974   -2.0415    1.0846 N.am    1  UNL11      -0.0351
     16 C           4.5734   -2.0537   -0.1269 C.2     1  UNL11       0.4383
     17 O           5.7729   -2.5017   -0.2507 O.2     1  UNL11      -0.2116
     18 C           3.8787   -1.5910   -1.2102 C.ar    1  UNL11       0.1009
     19 C           4.4691   -1.5768   -2.4350 C.ar    1  UNL11      -0.0441
     20 C           3.7729   -1.0816   -3.5165 C.ar    1  UNL11      -0.0608
     21 C           2.4796   -0.5987   -3.3644 C.ar    1  UNL11      -0.0611
     22 C           1.8786   -0.6105   -2.1342 C.ar    1  UNL11      -0.0513
     23 C           2.5787   -1.1093   -1.0605 C.ar    1  UNL11       0.0282
     24 H           0.5720    0.7868   -1.0940 H       1  UNL11       0.1491
     25 H          -1.9178    0.6701   -0.7992 H       1  UNL11       0.0465
     26 H          -1.1163    1.8802    0.3291 H       1  UNL11       0.0465
     27 H          -2.7571    0.4998    1.4953 H       1  UNL11       0.0328
     28 H          -1.9430   -1.0097    1.0464 H       1  UNL11       0.0328
     29 H          -2.5288    0.0160    3.8538 H       1  UNL11       0.0620
     30 H          -1.2297    0.3196    5.8781 H       1  UNL11       0.0619
     31 H           1.1952    0.7235    5.7051 H       1  UNL11       0.0646
     32 H           0.8692    0.4907    1.4034 H       1  UNL11       0.0649
     33 H           4.5676   -2.4069    1.9018 H       1  UNL11       0.4829
     34 H           5.4864   -1.9539   -2.5649 H       1  UNL11       0.0627
     35 H           4.2274   -1.0658   -4.4873 H       1  UNL11       0.0618
     36 H           1.9188   -0.2036   -4.2097 H       1  UNL11       0.0618
     37 H           0.8937   -0.1985   -2.0388 H       1  UNL11       0.0624
@<TRIPOS>BOND
     1     1     2    2
     2     2     3   am
     3     2    13    1
     4     3     4    1
     5     3    24    1
     6     4     5    1
     7     4    25    1
     8     4    26    1
     9     5     6    1
    10     5    27    1
    11     5    28    1
    12     6     7   ar
    13     7     8   ar
    14     7    29    1
    15     8     9   ar
    16     8    30    1
    17     9    10   ar
    18     9    31    1
    19    10    11    1
    20    10    12   ar
    21    12     6   ar
    22    12    32    1
    23    13    14    2
    24    14    15    1
    25    15    16   am
    26    15    33    1
    27    16    17    2
    28    16    18    1
    29    18    19   ar
    30    19    20   ar
    31    19    34    1
    32    20    21   ar
    33    20    35    1
    34    21    22   ar
    35    21    36    1
    36    22    23   ar
    37    22    37    1
    38    23    13    1
    39    23    18   ar
@<TRIPOS>MOLECULE
*****
 37 39 0 0 0
SMALL
GASTEIGER

@<TRIPOS>ATOM
      1 O           1.9082   -1.0799    0.2697 O.2     1  UNL11      -0.2683
      2 C           0.7301   -0.6581    0.5028 C.2     1  UNL11       0.2688
      3 N           0.1173    0.3448   -0.2502 N.am    1  UNL11      -0.3096
      4 C          -1.2198    0.7862    0.0809 C.3     1  UNL11       0.0159
      5 C          -1.7533    0.0400    1.2553 C.3     1  UNL11      -0.0120
      6 C          -3.1328    0.4495    1.6217 C.ar    1  UNL11      -0.0432
      7 C          -3.6214    1.7173    1.4025 C.ar    1  UNL11      -0.0584
      8 C          -4.8840    2.1332    1.7249 C.ar    1  UNL11      -0.0588
      9 C          -5.7393    1.2106    2.3176 C.ar    1  UNL11      -0.0264
     10 C          -5.2879   -0.0678    2.5534 C.ar    1  UNL11       0.1237
     11 F          -6.1180   -0.9640    3.1289 F       1  UNL11      -0.2055
     12 C          -4.0108   -0.4617    2.2189 C.ar    1  UNL11      -0.0232
     13 C           0.0622   -1.2853    1.6160 C.2     1  UNL11       0.1988
     14 N          -0.8327   -0.5013    2.2791 N.2     1  UNL11       0.0021
     15 N          -1.4881   -0.9824    3.3139 N.am    1  UNL11      -0.0351
     16 C          -1.2990   -2.2394    3.7428 C.2     1  UNL11       0.4383
     17 O          -1.9641   -2.6664    4.7578 O.2     1  UNL11      -0.2116
     18 C          -0.4045   -3.0467    3.0962 C.ar    1  UNL11       0.1009
     19 C          -0.1906   -4.3124    3.5447 C.ar    1  UNL11      -0.0441
     20 C           0.7342   -5.1100    2.9057 C.ar    1  UNL11      -0.0608
     21 C           1.4459   -4.6318    1.8131 C.ar    1  UNL11      -0.0611
     22 C           1.2353   -3.3586    1.3556 C.ar    1  UNL11      -0.0513
     23 C           0.3084   -2.5701    1.9967 C.ar    1  UNL11       0.0282
     24 H           0.5720    0.7868   -1.0940 H       1  UNL11       0.1491
     25 H          -1.9178    0.6701   -0.7992 H       1  UNL11       0.0465
     26 H          -1.1163    1.8802    0.3291 H       1  UNL11       0.0465
     27 H          -1.8402   -1.0396    0.9337 H       1  UNL11       0.0328
     28 H          -1.0818    0.0485    2.1100 H       1  UNL11       0.0328
     29 H          -2.9666    2.4451    0.9420 H       1  UNL11       0.0620
     30 H          -5.2107    3.1541    1.5245 H       1  UNL11       0.0619
     31 H          -6.7495    1.5418    2.5761 H       1  UNL11       0.0646
     32 H          -3.6423   -1.4546    2.3957 H       1  UNL11       0.0649
     33 H          -2.1890   -0.3850    3.8414 H       1  UNL11       0.4829
     34 H          -0.7451   -4.6976    4.4038 H       1  UNL11       0.0627
     35 H           0.9110   -6.1099    3.2495 H       1  UNL11       0.0618
     36 H           2.1801   -5.2505    1.2999 H       1  UNL11       0.0618
     37 H           1.8242   -3.0032    0.5336 H       1  UNL11       0.0624
@<TRIPOS>BOND
     1     1     2    2
     2     2     3   am
     3     2    13    1
     4     3     4    1
     5     3    24    1
     6     4     5    1
     7     4    25    1
     8     4    26    1
     9     5     6    1
    10     5    27    1
    11     5    28    1
    12     6     7   ar
    13     7     8   ar
    14     7    29    1
    15     8     9   ar
    16     8    30    1
    17     9    10   ar
    18     9    31    1
    19    10    11    1
    20    10    12   ar
    21    12     6   ar
    22    12    32    1
    23    13    14    2
    24    14    15    1
    25    15    16   am
    26    15    33    1
    27    16    17    2
    28    16    18    1
    29    18    19   ar
    30    19    20   ar
    31    19    34    1
    32    20    21   ar
    33    20    35    1
    34    21    22   ar
    35    21    36    1
    36    22    23   ar
    37    22    37    1
    38    23    13    1
    39    23    18   ar
@<TRIPOS>MOLECULE
*****
 37 39 0 0 0
SMALL
GASTEIGER

@<TRIPOS>ATOM
      1 O           0.1668   -1.2252    1.4933 O.2     1  UNL11      -0.2683
      2 C           0.7301   -0.6581    0.5028 C.2     1  UNL11       0.2688
      3 N           0.1173    0.3448   -0.2502 N.am    1  UNL11      -0.3096
      4 C          -1.2198    0.7862    0.0809 C.3     1  UNL11       0.0159
      5 C          -1.2356    2.2382    0.4155 C.3     1  UNL11      -0.0120
      6 C          -0.7789    3.0949   -0.7081 C.ar    1  UNL11      -0.0432
      7 C          -0.6982    4.4660   -0.6204 C.ar    1  UNL11      -0.0584
      8 C          -0.2830    5.2891   -1.6309 C.ar    1  UNL11      -0.0588
      9 C           0.0852    4.7016   -2.8364 C.ar    1  UNL11      -0.0264
     10 C           0.0184    3.3329   -2.9637 C.ar    1  UNL11       0.1237
     11 F           0.3759    2.7619   -4.1340 F       1  UNL11      -0.2055
     12 C          -0.4035    2.5258   -1.9300 C.ar    1  UNL11      -0.0232
     13 C           2.0577   -1.1306    0.1981 C.2     1  UNL11       0.1988
     14 N           2.3026   -2.4327    0.5140 N.2     1  UNL11       0.0021
     15 N           3.4879   -2.9543    0.2799 N.am    1  UNL11      -0.0351
     16 C           4.4774   -2.2327   -0.2678 C.2     1  UNL11       0.4383
     17 O           5.6191   -2.7863   -0.4798 O.2     1  UNL11      -0.2116
     18 C           4.2585   -0.9224   -0.5922 C.ar    1  UNL11       0.1009
     19 C           5.2672   -0.1806   -1.1226 C.ar    1  UNL11      -0.0441
     20 C           5.0474    1.1472   -1.4195 C.ar    1  UNL11      -0.0608
     21 C           3.8094    1.7298   -1.1810 C.ar    1  UNL11      -0.0611
     22 C           2.7889    0.9889   -0.6478 C.ar    1  UNL11      -0.0513
     23 C           3.0152   -0.3364   -0.3574 C.ar    1  UNL11       0.0282
     24 H           0.5720    0.7868   -1.0940 H       1  UNL11       0.1491
     25 H          -1.6466    0.1883    0.9385 H       1  UNL11       0.0465
     26 H          -1.8318    0.5934   -0.8451 H       1  UNL11       0.0465
     27 H          -2.3187    2.5155    0.5783 H       1  UNL11       0.0328
     28 H          -0.7206    2.4700    1.3442 H       1  UNL11       0.0328
     29 H          -0.9817    4.9362    0.3118 H       1  UNL11       0.0620
     30 H          -0.2416    6.3706   -1.4973 H       1  UNL11       0.0619
     31 H           0.4174    5.3586   -3.6455 H       1  UNL11       0.0646
     32 H          -0.4616    1.4568   -2.0121 H       1  UNL11       0.0649
     33 H           3.6952   -3.9672    0.5197 H       1  UNL11       0.4829
     34 H           6.2449   -0.6297   -1.3133 H       1  UNL11       0.0627
     35 H           5.8346    1.7421   -1.8386 H       1  UNL11       0.0618
     36 H           3.6224    2.7778   -1.4095 H       1  UNL11       0.0618
     37 H           1.8553    1.4730   -0.4406 H       1  UNL11       0.0624
@<TRIPOS>BOND
     1     1     2    2
     2     2     3   am
     3     2    13    1
     4     3     4    1
     5     3    24    1
     6     4     5    1
     7     4    25    1
     8     4    26    1
     9     5     6    1
    10     5    27    1
    11     5    28    1
    12     6     7   ar
    13     7     8   ar
    14     7    29    1
    15     8     9   ar
    16     8    30    1
    17     9    10   ar
    18     9    31    1
    19    10    11    1
    20    10    12   ar
    21    12     6   ar
    22    12    32    1
    23    13    14    2
    24    14    15    1
    25    15    16   am
    26    15    33    1
    27    16    17    2
    28    16    18    1
    29    18    19   ar
    30    19    20   ar
    31    19    34    1
    32    20    21   ar
    33    20    35    1
    34    21    22   ar
    35    21    36    1
    36    22    23   ar
    37    22    37    1
    38    23    13    1
    39    23    18   ar
@<TRIPOS>MOLECULE
*****
 37 39 0 0 0
SMALL
GASTEIGER

@<TRIPOS>ATOM
      1 O           0.1668   -1.2252    1.4933 O.2     1  UNL11      -0.2683
      2 C           0.7301   -0.6581    0.5028 C.2     1  UNL11       0.2688
      3 N           0.1173    0.3448   -0.2502 N.am    1  UNL11      -0.3096
      4 C          -1.2198    0.7862    0.0809 C.3     1  UNL11       0.0159
      5 C          -1.6806    1.8465   -0.8593 C.3     1  UNL11      -0.0120
      6 C          -3.0449    2.3425   -0.5468 C.ar    1  UNL11      -0.0432
      7 C          -4.1848    1.7894   -1.0844 C.ar    1  UNL11      -0.0584
      8 C          -5.4575    2.2165   -0.8220 C.ar    1  UNL11      -0.0588
      9 C          -5.6154    3.2874    0.0510 C.ar    1  UNL11      -0.0264
     10 C          -4.4996    3.8679    0.6094 C.ar    1  UNL11       0.1237
     11 F          -4.6524    4.9078    1.4573 F       1  UNL11      -0.2055
     12 C          -3.2279    3.4185    0.3287 C.ar    1  UNL11      -0.0232
     13 C           2.0577   -1.1306    0.1981 C.2     1  UNL11       0.1988
     14 N           2.8958   -0.2081   -0.3514 N.2     1  UNL11       0.0021
     15 N           4.1269   -0.5459   -0.6706 N.am    1  UNL11      -0.0351
     16 C           4.5890   -1.7891   -0.4692 C.2     1  UNL11       0.4383
     17 O           5.8007   -2.0723   -0.7954 O.2     1  UNL11      -0.2116
     18 C           3.7674   -2.7350    0.0789 C.ar    1  UNL11       0.1009
     19 C           4.2240   -4.0030    0.2596 C.ar    1  UNL11      -0.0441
     20 C           3.3806   -4.9579    0.7852 C.ar    1  UNL11      -0.0608
     21 C           2.0741   -4.6357    1.1289 C.ar    1  UNL11      -0.0611
     22 C           1.6077   -3.3608    0.9504 C.ar    1  UNL11      -0.0513
     23 C           2.4566   -2.4128    0.4285 C.ar    1  UNL11       0.0282
     24 H           0.5720    0.7868   -1.0940 H       1  UNL11       0.1491
     25 H          -1.2738    1.1634    1.1439 H       1  UNL11       0.0465
     26 H          -1.8664   -0.1308   -0.0194 H       1  UNL11       0.0465
     27 H          -0.9989    2.7330   -0.6981 H       1  UNL11       0.0328
     28 H          -1.5741    1.5686   -1.9047 H       1  UNL11       0.0328
     29 H          -4.0764    0.9556   -1.7652 H       1  UNL11       0.0620
     30 H          -6.3209    1.7342   -1.2815 H       1  UNL11       0.0619
     31 H          -6.6327    3.6301    0.2617 H       1  UNL11       0.0646
     32 H          -2.3468    3.8594    0.7553 H       1  UNL11       0.0649
     33 H           4.7927    0.1607   -1.0993 H       1  UNL11       0.4829
     34 H           5.2501   -4.2665   -0.0083 H       1  UNL11       0.0627
     35 H           3.7292   -5.9608    0.9330 H       1  UNL11       0.0618
     36 H           1.3968   -5.3803    1.5438 H       1  UNL11       0.0618
     37 H           0.5847   -3.1489    1.1904 H       1  UNL11       0.0624
@<TRIPOS>BOND
     1     1     2    2
     2     2     3   am
     3     2    13    1
     4     3     4    1
     5     3    24    1
     6     4     5    1
     7     4    25    1
     8     4    26    1
     9     5     6    1
    10     5    27    1
    11     5    28    1
    12     6     7   ar
    13     7     8   ar
    14     7    29    1
    15     8     9   ar
    16     8    30    1
    17     9    10   ar
    18     9    31    1
    19    10    11    1
    20    10    12   ar
    21    12     6   ar
    22    12    32    1
    23    13    14    2
    24    14    15    1
    25    15    16   am
    26    15    33    1
    27    16    17    2
    28    16    18    1
    29    18    19   ar
    30    19    20   ar
    31    19    34    1
    32    20    21   ar
    33    20    35    1
    34    21    22   ar
    35    21    36    1
    36    22    23   ar
    37    22    37    1
    38    23    13    1
    39    23    18   ar
@<TRIPOS>MOLECULE
*****
 37 39 0 0 0
SMALL
GASTEIGER

@<TRIPOS>ATOM
      1 O           1.9082   -1.0799    0.2697 O.2     1  UNL11      -0.2683
      2 C           0.7301   -0.6581    0.5028 C.2     1  UNL11       0.2688
      3 N           0.1173    0.3448   -0.2502 N.am    1  UNL11      -0.3096
      4 C          -1.2198    0.7862    0.0809 C.3     1  UNL11       0.0159
      5 C          -1.2356    2.2382    0.4155 C.3     1  UNL11      -0.0120
      6 C          -2.5879    2.7326    0.7786 C.ar    1  UNL11      -0.0432
      7 C          -3.7010    1.9235    0.7997 C.ar    1  UNL11      -0.0584
      8 C          -4.9619    2.3399    1.1282 C.ar    1  UNL11      -0.0588
      9 C          -5.1358    3.6777    1.4661 C.ar    1  UNL11      -0.0264
     10 C          -4.0469    4.5190    1.4569 C.ar    1  UNL11       0.1237
     11 F          -4.2152    5.8181    1.7849 F       1  UNL11      -0.2055
     12 C          -2.7867    4.0744    1.1221 C.ar    1  UNL11      -0.0232
     13 C           0.0622   -1.2853    1.6160 C.2     1  UNL11       0.1988
     14 N           0.8770   -1.7269    2.6143 N.2     1  UNL11       0.0021
     15 N           0.3613   -2.3192    3.6702 N.am    1  UNL11      -0.0351
     16 C          -0.9614   -2.5050    3.7957 C.2     1  UNL11       0.4383
     17 O          -1.4197   -3.0876    4.8471 O.2     1  UNL11      -0.2116
     18 C          -1.8013   -2.0731    2.8067 C.ar    1  UNL11       0.1009
     19 C          -3.1400   -2.2838    2.9182 C.ar    1  UNL11      -0.0441
     20 C          -3.9771   -1.8720    1.9036 C.ar    1  UNL11      -0.0608
     21 C          -3.4650   -1.2474    0.7737 C.ar    1  UNL11      -0.0611
     22 C          -2.1182   -1.0313    0.6550 C.ar    1  UNL11      -0.0513
     23 C          -1.2899   -1.4423    1.6733 C.ar    1  UNL11       0.0282
     24 H           0.5720    0.7868   -1.0940 H       1  UNL11       0.1491
     25 H          -1.6466    0.1883    0.9385 H       1  UNL11       0.0465
     26 H          -1.8318    0.5934   -0.8451 H       1  UNL11       0.0465
     27 H          -0.6156    2.3556    1.3527 H       1  UNL11       0.0328
     28 H          -0.7613    2.8580   -0.3411 H       1  UNL11       0.0328
     29 H          -3.5799    0.8806    0.5389 H       1  UNL11       0.0620
     30 H          -5.8039    1.6471    1.1257 H       1  UNL11       0.0619
     31 H          -6.1437    4.0122    1.7290 H       1  UNL11       0.0646
     32 H          -1.9265    4.7168    1.1097 H       1  UNL11       0.0649
     33 H           0.9819   -2.6689    4.4569 H       1  UNL11       0.4829
     34 H          -3.5525   -2.7748    3.8029 H       1  UNL11       0.0627
     35 H          -5.0343   -2.0318    1.9803 H       1  UNL11       0.0618
     36 H          -4.1145   -0.9182   -0.0356 H       1  UNL11       0.0618
     37 H          -1.7467   -0.5800   -0.2435 H       1  UNL11       0.0624
@<TRIPOS>BOND
     1     1     2    2
     2     2     3   am
     3     2    13    1
     4     3     4    1
     5     3    24    1
     6     4     5    1
     7     4    25    1
     8     4    26    1
     9     5     6    1
    10     5    27    1
    11     5    28    1
    12     6     7   ar
    13     7     8   ar
    14     7    29    1
    15     8     9   ar
    16     8    30    1
    17     9    10   ar
    18     9    31    1
    19    10    11    1
    20    10    12   ar
    21    12     6   ar
    22    12    32    1
    23    13    14    2
    24    14    15    1
    25    15    16   am
    26    15    33    1
    27    16    17    2
    28    16    18    1
    29    18    19   ar
    30    19    20   ar
    31    19    34    1
    32    20    21   ar
    33    20    35    1
    34    21    22   ar
    35    21    36    1
    36    22    23   ar
    37    22    37    1
    38    23    13    1
    39    23    18   ar
@<TRIPOS>MOLECULE
*****
 37 39 0 0 0
SMALL
GASTEIGER

@<TRIPOS>ATOM
      1 O           1.9082   -1.0799    0.2697 O.2     1  UNL11      -0.2683
      2 C           0.7301   -0.6581    0.5028 C.2     1  UNL11       0.2688
      3 N           0.1173    0.3448   -0.2502 N.am    1  UNL11      -0.3096
      4 C          -1.2198    0.7862    0.0809 C.3     1  UNL11       0.0159
      5 C          -1.2356    2.2382    0.4155 C.3     1  UNL11      -0.0120
      6 C          -0.3584    2.5757    1.5651 C.ar    1  UNL11      -0.0432
      7 C          -0.8295    3.1482    2.7246 C.ar    1  UNL11      -0.0584
      8 C          -0.0553    3.4734    3.8044 C.ar    1  UNL11      -0.0588
      9 C           1.3077    3.2079    3.7289 C.ar    1  UNL11      -0.0264
     10 C           1.8175    2.6356    2.5859 C.ar    1  UNL11       0.1237
     11 F           3.1409    2.3775    2.5122 F       1  UNL11      -0.2055
     12 C           1.0158    2.3174    1.5117 C.ar    1  UNL11      -0.0232
     13 C           0.0622   -1.2853    1.6160 C.2     1  UNL11       0.1988
     14 N           0.8770   -1.7269    2.6143 N.2     1  UNL11       0.0021
     15 N           0.3613   -2.3192    3.6702 N.am    1  UNL11      -0.0351
     16 C          -0.9614   -2.5050    3.7957 C.2     1  UNL11       0.4383
     17 O          -1.4197   -3.0876    4.8471 O.2     1  UNL11      -0.2116
     18 C          -1.8013   -2.0731    2.8067 C.ar    1  UNL11       0.1009
     19 C          -3.1400   -2.2838    2.9182 C.ar    1  UNL11      -0.0441
     20 C          -3.9771   -1.8720    1.9036 C.ar    1  UNL11      -0.0608
     21 C          -3.4650   -1.2474    0.7737 C.ar    1  UNL11      -0.0611
     22 C          -2.1182   -1.0313    0.6550 C.ar    1  UNL11      -0.0513
     23 C          -1.2899   -1.4423    1.6733 C.ar    1  UNL11       0.0282
     24 H           0.5720    0.7868   -1.0940 H       1  UNL11       0.1491
     25 H          -1.6466    0.1883    0.9385 H       1  UNL11       0.0465
     26 H          -1.8318    0.5934   -0.8451 H       1  UNL11       0.0465
     27 H          -0.7826    2.7739   -0.4702 H       1  UNL11       0.0328
     28 H          -2.2385    2.6406    0.5324 H       1  UNL11       0.0328
     29 H          -1.8879    3.3602    2.7967 H       1  UNL11       0.0620
     30 H          -0.4909    3.9262    4.6956 H       1  UNL11       0.0619
     31 H           1.9282    3.4675    4.5917 H       1  UNL11       0.0646
     32 H           1.3966    1.8708    0.6127 H       1  UNL11       0.0649
     33 H           0.9819   -2.6689    4.4569 H       1  UNL11       0.4829
     34 H          -3.5525   -2.7748    3.8029 H       1  UNL11       0.0627
     35 H          -5.0343   -2.0318    1.9803 H       1  UNL11       0.0618
     36 H          -4.1145   -0.9182   -0.0356 H       1  UNL11       0.0618
     37 H          -1.7467   -0.5800   -0.2435 H       1  UNL11       0.0624
@<TRIPOS>BOND
     1     1     2    2
     2     2     3   am
     3     2    13    1
     4     3     4    1
     5     3    24    1
     6     4     5    1
     7     4    25    1
     8     4    26    1
     9     5     6    1
    10     5    27    1
    11     5    28    1
    12     6     7   ar
    13     7     8   ar
    14     7    29    1
    15     8     9   ar
    16     8    30    1
    17     9    10   ar
    18     9    31    1
    19    10    11    1
    20    10    12   ar
    21    12     6   ar
    22    12    32    1
    23    13    14    2
    24    14    15    1
    25    15    16   am
    26    15    33    1
    27    16    17    2
    28    16    18    1
    29    18    19   ar
    30    19    20   ar
    31    19    34    1
    32    20    21   ar
    33    20    35    1
    34    21    22   ar
    35    21    36    1
    36    22    23   ar
    37    22    37    1
    38    23    13    1
    39    23    18   ar
@<TRIPOS>MOLECULE
*****
 37 39 0 0 0
SMALL
GASTEIGER

@<TRIPOS>ATOM
      1 O           1.9082   -1.0799    0.2697 O.2     1  UNL11      -0.2683
      2 C           0.7301   -0.6581    0.5028 C.2     1  UNL11       0.2688
      3 N           0.1173    0.3448   -0.2502 N.am    1  UNL11      -0.3096
      4 C          -1.2198    0.7862    0.0809 C.3     1  UNL11       0.0159
      5 C          -1.2356    2.2382    0.4155 C.3     1  UNL11      -0.0120
      6 C          -0.3584    2.5757    1.5651 C.ar    1  UNL11      -0.0432
      7 C           0.3856    1.6358    2.2413 C.ar    1  UNL11      -0.0584
      8 C           1.2044    1.9058    3.3032 C.ar    1  UNL11      -0.0588
      9 C           1.2944    3.2250    3.7340 C.ar    1  UNL11      -0.0264
     10 C           0.5657    4.1944    3.0835 C.ar    1  UNL11       0.1237
     11 F           0.6528    5.4756    3.5014 F       1  UNL11      -0.2055
     12 C          -0.2521    3.8961    2.0158 C.ar    1  UNL11      -0.0232
     13 C           0.0622   -1.2853    1.6160 C.2     1  UNL11       0.1988
     14 N           0.8770   -1.7269    2.6143 N.2     1  UNL11       0.0021
     15 N           0.3613   -2.3192    3.6702 N.am    1  UNL11      -0.0351
     16 C          -0.9614   -2.5050    3.7957 C.2     1  UNL11       0.4383
     17 O          -1.4197   -3.0876    4.8471 O.2     1  UNL11      -0.2116
     18 C          -1.8013   -2.0731    2.8067 C.ar    1  UNL11       0.1009
     19 C          -3.1400   -2.2838    2.9182 C.ar    1  UNL11      -0.0441
     20 C          -3.9771   -1.8720    1.9036 C.ar    1  UNL11      -0.0608
     21 C          -3.4650   -1.2474    0.7737 C.ar    1  UNL11      -0.0611
     22 C          -2.1182   -1.0313    0.6550 C.ar    1  UNL11      -0.0513
     23 C          -1.2899   -1.4423    1.6733 C.ar    1  UNL11       0.0282
     24 H           0.5720    0.7868   -1.0940 H       1  UNL11       0.1491
     25 H          -1.6466    0.1883    0.9385 H       1  UNL11       0.0465
     26 H          -1.8318    0.5934   -0.8451 H       1  UNL11       0.0465
     27 H          -0.7826    2.7739   -0.4702 H       1  UNL11       0.0328
     28 H          -2.2385    2.6406    0.5324 H       1  UNL11       0.0328
     29 H           0.3249    0.6056    1.9167 H       1  UNL11       0.0620
     30 H           1.7686    1.1140    3.7969 H       1  UNL11       0.0619
     31 H           1.9489    3.4426    4.5832 H       1  UNL11       0.0646
     32 H          -0.8274    4.6395    1.4970 H       1  UNL11       0.0649
     33 H           0.9819   -2.6689    4.4569 H       1  UNL11       0.4829
     34 H          -3.5525   -2.7748    3.8029 H       1  UNL11       0.0627
     35 H          -5.0343   -2.0318    1.9803 H       1  UNL11       0.0618
     36 H          -4.1145   -0.9182   -0.0356 H       1  UNL11       0.0618
     37 H          -1.7467   -0.5800   -0.2435 H       1  UNL11       0.0624
@<TRIPOS>BOND
     1     1     2    2
     2     2     3   am
     3     2    13    1
     4     3     4    1
     5     3    24    1
     6     4     5    1
     7     4    25    1
     8     4    26    1
     9     5     6    1
    10     5    27    1
    11     5    28    1
    12     6     7   ar
    13     7     8   ar
    14     7    29    1
    15     8     9   ar
    16     8    30    1
    17     9    10   ar
    18     9    31    1
    19    10    11    1
    20    10    12   ar
    21    12     6   ar
    22    12    32    1
    23    13    14    2
    24    14    15    1
    25    15    16   am
    26    15    33    1
    27    16    17    2
    28    16    18    1
    29    18    19   ar
    30    19    20   ar
    31    19    34    1
    32    20    21   ar
    33    20    35    1
    34    21    22   ar
    35    21    36    1
    36    22    23   ar
    37    22    37    1
    38    23    13    1
    39    23    18   ar
@<TRIPOS>MOLECULE
*****
 37 39 0 0 0
SMALL
GASTEIGER

@<TRIPOS>ATOM
      1 O           1.9082   -1.0799    0.2697 O.2     1  UNL11      -0.2683
      2 C           0.7301   -0.6581    0.5028 C.2     1  UNL11       0.2688
      3 N           0.1173    0.3448   -0.2502 N.am    1  UNL11      -0.3096
      4 C          -1.2198    0.7862    0.0809 C.3     1  UNL11       0.0159
      5 C          -2.1522    0.5695   -1.0612 C.3     1  UNL11      -0.0120
      6 C          -2.2678   -0.8592   -1.4494 C.ar    1  UNL11      -0.0432
      7 C          -1.5801   -1.8669   -0.8124 C.ar    1  UNL11      -0.0584
      8 C          -1.6593   -3.1927   -1.1392 C.ar    1  UNL11      -0.0588
      9 C          -2.4945   -3.5528   -2.1913 C.ar    1  UNL11      -0.0264
     10 C          -3.1994   -2.5738   -2.8536 C.ar    1  UNL11       0.1237
     11 F          -4.0105   -2.9229   -3.8752 F       1  UNL11      -0.2055
     12 C          -3.1019   -1.2447   -2.5046 C.ar    1  UNL11      -0.0232
     13 C           0.0622   -1.2853    1.6160 C.2     1  UNL11       0.1988
     14 N          -1.2937   -1.3665    1.5151 N.2     1  UNL11       0.0021
     15 N          -1.9933   -1.9167    2.4844 N.am    1  UNL11      -0.0351
     16 C          -1.4041   -2.4067    3.5855 C.2     1  UNL11       0.4383
     17 O          -2.1292   -2.9373    4.5061 O.2     1  UNL11      -0.2116
     18 C          -0.0444   -2.3356    3.7129 C.ar    1  UNL11       0.1009
     19 C           0.5538   -2.8070    4.8394 C.ar    1  UNL11      -0.0441
     20 C           1.9217   -2.7050    4.9731 C.ar    1  UNL11      -0.0608
     21 C           2.6892   -2.1262    3.9707 C.ar    1  UNL11      -0.0611
     22 C           2.0939   -1.6500    2.8333 C.ar    1  UNL11      -0.0513
     23 C           0.7286   -1.7585    2.7060 C.ar    1  UNL11       0.0282
     24 H           0.5720    0.7868   -1.0940 H       1  UNL11       0.1491
     25 H          -1.2274    1.8740    0.3838 H       1  UNL11       0.0465
     26 H          -1.5292    0.1550    0.9612 H       1  UNL11       0.0465
     27 H          -3.1798    0.8605   -0.6927 H       1  UNL11       0.0328
     28 H          -1.9429    1.2109   -1.9134 H       1  UNL11       0.0328
     29 H          -0.9267   -1.6008    0.0078 H       1  UNL11       0.0620
     30 H          -1.0871   -3.9439   -0.5939 H       1  UNL11       0.0619
     31 H          -2.5589   -4.6129   -2.4538 H       1  UNL11       0.0646
     32 H          -3.6444   -0.4683   -3.0103 H       1  UNL11       0.0649
     33 H          -3.0503   -1.9881    2.4214 H       1  UNL11       0.4829
     34 H          -0.0414   -3.2635    5.6339 H       1  UNL11       0.0627
     35 H           2.4048   -3.0736    5.8563 H       1  UNL11       0.0618
     36 H           3.7704   -2.0380    4.0638 H       1  UNL11       0.0618
     37 H           2.7059   -1.1757    2.0922 H       1  UNL11       0.0624
@<TRIPOS>BOND
     1     1     2    2
     2     2     3   am
     3     2    13    1
     4     3     4    1
     5     3    24    1
     6     4     5    1
     7     4    25    1
     8     4    26    1
     9     5     6    1
    10     5    27    1
    11     5    28    1
    12     6     7   ar
    13     7     8   ar
    14     7    29    1
    15     8     9   ar
    16     8    30    1
    17     9    10   ar
    18     9    31    1
    19    10    11    1
    20    10    12   ar
    21    12     6   ar
    22    12    32    1
    23    13    14    2
    24    14    15    1
    25    15    16   am
    26    15    33    1
    27    16    17    2
    28    16    18    1
    29    18    19   ar
    30    19    20   ar
    31    19    34    1
    32    20    21   ar
    33    20    35    1
    34    21    22   ar
    35    21    36    1
    36    22    23   ar
    37    22    37    1
    38    23    13    1
    39    23    18   ar
@<TRIPOS>MOLECULE
*****
 37 39 0 0 0
SMALL
GASTEIGER

@<TRIPOS>ATOM
      1 O           1.9082   -1.0799    0.2697 O.2     1  UNL11      -0.2683
      2 C           0.7301   -0.6581    0.5028 C.2     1  UNL11       0.2688
      3 N           0.1173    0.3448   -0.2502 N.am    1  UNL11      -0.3096
      4 C          -1.2198    0.7862    0.0809 C.3     1  UNL11       0.0159
      5 C          -2.1522    0.5695   -1.0612 C.3     1  UNL11      -0.0120
      6 C          -2.2678   -0.8592   -1.4494 C.ar    1  UNL11      -0.0432
      7 C          -1.4545   -1.4482   -2.3905 C.ar    1  UNL11      -0.0584
      8 C          -1.5288   -2.7588   -2.7750 C.ar    1  UNL11      -0.0588
      9 C          -2.4955   -3.5575   -2.1737 C.ar    1  UNL11      -0.0264
     10 C          -3.3283   -3.0052   -1.2275 C.ar    1  UNL11       0.1237
     11 F          -4.2671   -3.7804   -0.6432 F       1  UNL11      -0.2055
     12 C          -3.2327   -1.6817   -0.8576 C.ar    1  UNL11      -0.0232
     13 C           0.0622   -1.2853    1.6160 C.2     1  UNL11       0.1988
     14 N          -1.2937   -1.3665    1.5151 N.2     1  UNL11       0.0021
     15 N          -1.9933   -1.9167    2.4844 N.am    1  UNL11      -0.0351
     16 C          -1.4041   -2.4067    3.5855 C.2     1  UNL11       0.4383
     17 O          -2.1292   -2.9373    4.5061 O.2     1  UNL11      -0.2116
     18 C          -0.0444   -2.3356    3.7129 C.ar    1  UNL11       0.1009
     19 C           0.5538   -2.8070    4.8394 C.ar    1  UNL11      -0.0441
     20 C           1.9217   -2.7050    4.9731 C.ar    1  UNL11      -0.0608
     21 C           2.6892   -2.1262    3.9707 C.ar    1  UNL11      -0.0611
     22 C           2.0939   -1.6500    2.8333 C.ar    1  UNL11      -0.0513
     23 C           0.7286   -1.7585    2.7060 C.ar    1  UNL11       0.0282
     24 H           0.5720    0.7868   -1.0940 H       1  UNL11       0.1491
     25 H          -1.2274    1.8740    0.3838 H       1  UNL11       0.0465
     26 H          -1.5292    0.1550    0.9612 H       1  UNL11       0.0465
     27 H          -3.1798    0.8605   -0.6927 H       1  UNL11       0.0328
     28 H          -1.9429    1.2109   -1.9134 H       1  UNL11       0.0328
     29 H          -0.6981   -0.8383   -2.8663 H       1  UNL11       0.0620
     30 H          -0.8533   -3.1654   -3.5283 H       1  UNL11       0.0619
     31 H          -2.5562   -4.6059   -2.4802 H       1  UNL11       0.0646
     32 H          -3.8740   -1.2347   -0.1216 H       1  UNL11       0.0649
     33 H          -3.0503   -1.9881    2.4214 H       1  UNL11       0.4829
     34 H          -0.0414   -3.2635    5.6339 H       1  UNL11       0.0627
     35 H           2.4048   -3.0736    5.8563 H       1  UNL11       0.0618
     36 H           3.7704   -2.0380    4.0638 H       1  UNL11       0.0618
     37 H           2.7059   -1.1757    2.0922 H       1  UNL11       0.0624
@<TRIPOS>BOND
     1     1     2    2
     2     2     3   am
     3     2    13    1
     4     3     4    1
     5     3    24    1
     6     4     5    1
     7     4    25    1
     8     4    26    1
     9     5     6    1
    10     5    27    1
    11     5    28    1
    12     6     7   ar
    13     7     8   ar
    14     7    29    1
    15     8     9   ar
    16     8    30    1
    17     9    10   ar
    18     9    31    1
    19    10    11    1
    20    10    12   ar
    21    12     6   ar
    22    12    32    1
    23    13    14    2
    24    14    15    1
    25    15    16   am
    26    15    33    1
    27    16    17    2
    28    16    18    1
    29    18    19   ar
    30    19    20   ar
    31    19    34    1
    32    20    21   ar
    33    20    35    1
    34    21    22   ar
    35    21    36    1
    36    22    23   ar
    37    22    37    1
    38    23    13    1
    39    23    18   ar
@<TRIPOS>MOLECULE
*****
 37 39 0 0 0
SMALL
GASTEIGER

@<TRIPOS>ATOM
      1 O           0.1668   -1.2252    1.4933 O.2     1  UNL11      -0.2683
      2 C           0.7301   -0.6581    0.5028 C.2     1  UNL11       0.2688
      3 N           0.1173    0.3448   -0.2502 N.am    1  UNL11      -0.3096
      4 C          -1.2198    0.7862    0.0809 C.3     1  UNL11       0.0159
      5 C          -2.1889   -0.3434    0.0074 C.3     1  UNL11      -0.0120
      6 C          -2.2472   -0.9678   -1.3386 C.ar    1  UNL11      -0.0432
      7 C          -2.5882   -0.2696   -2.4745 C.ar    1  UNL11      -0.0584
      8 C          -2.6531   -0.8074   -3.7306 C.ar    1  UNL11      -0.0588
      9 C          -2.3534   -2.1577   -3.8744 C.ar    1  UNL11      -0.0264
     10 C          -2.0078   -2.8905   -2.7620 C.ar    1  UNL11       0.1237
     11 F          -1.7167   -4.2017   -2.9011 F       1  UNL11      -0.2055
     12 C          -1.9497   -2.3246   -1.5073 C.ar    1  UNL11      -0.0232
     13 C           2.0577   -1.1306    0.1981 C.2     1  UNL11       0.1988
     14 N           2.8958   -0.2081   -0.3514 N.2     1  UNL11       0.0021
     15 N           4.1269   -0.5459   -0.6706 N.am    1  UNL11      -0.0351
     16 C           4.5890   -1.7891   -0.4692 C.2     1  UNL11       0.4383
     17 O           5.8007   -2.0723   -0.7954 O.2     1  UNL11      -0.2116
     18 C           3.7674   -2.7350    0.0789 C.ar    1  UNL11       0.1009
     19 C           4.2240   -4.0030    0.2596 C.ar    1  UNL11      -0.0441
     20 C           3.3806   -4.9579    0.7852 C.ar    1  UNL11      -0.0608
     21 C           2.0741   -4.6357    1.1289 C.ar    1  UNL11      -0.0611
     22 C           1.6077   -3.3608    0.9504 C.ar    1  UNL11      -0.0513
     23 C           2.4566   -2.4128    0.4285 C.ar    1  UNL11       0.0282
     24 H           0.5720    0.7868   -1.0940 H       1  UNL11       0.1491
     25 H          -1.5529    1.6247   -0.5981 H       1  UNL11       0.0465
     26 H          -1.1502    1.1713    1.1373 H       1  UNL11       0.0465
     27 H          -1.7903   -1.1497    0.6911 H       1  UNL11       0.0328
     28 H          -3.1757   -0.0872    0.3842 H       1  UNL11       0.0328
     29 H          -2.8237    0.7818   -2.3770 H       1  UNL11       0.0620
     30 H          -2.9305   -0.1987   -4.5918 H       1  UNL11       0.0619
     31 H          -2.4049   -2.5893   -4.8784 H       1  UNL11       0.0646
     32 H          -1.6821   -2.8813   -0.6290 H       1  UNL11       0.0649
     33 H           4.7927    0.1607   -1.0993 H       1  UNL11       0.4829
     34 H           5.2501   -4.2665   -0.0083 H       1  UNL11       0.0627
     35 H           3.7292   -5.9608    0.9330 H       1  UNL11       0.0618
     36 H           1.3968   -5.3803    1.5438 H       1  UNL11       0.0618
     37 H           0.5847   -3.1489    1.1904 H       1  UNL11       0.0624
@<TRIPOS>BOND
     1     1     2    2
     2     2     3   am
     3     2    13    1
     4     3     4    1
     5     3    24    1
     6     4     5    1
     7     4    25    1
     8     4    26    1
     9     5     6    1
    10     5    27    1
    11     5    28    1
    12     6     7   ar
    13     7     8   ar
    14     7    29    1
    15     8     9   ar
    16     8    30    1
    17     9    10   ar
    18     9    31    1
    19    10    11    1
    20    10    12   ar
    21    12     6   ar
    22    12    32    1
    23    13    14    2
    24    14    15    1
    25    15    16   am
    26    15    33    1
    27    16    17    2
    28    16    18    1
    29    18    19   ar
    30    19    20   ar
    31    19    34    1
    32    20    21   ar
    33    20    35    1
    34    21    22   ar
    35    21    36    1
    36    22    23   ar
    37    22    37    1
    38    23    13    1
    39    23    18   ar
@<TRIPOS>MOLECULE
*****
 37 39 0 0 0
SMALL
GASTEIGER

@<TRIPOS>ATOM
      1 O           1.9082   -1.0799    0.2697 O.2     1  UNL11      -0.2683
      2 C           0.7301   -0.6581    0.5028 C.2     1  UNL11       0.2688
      3 N           0.1173    0.3448   -0.2502 N.am    1  UNL11      -0.3096
      4 C          -1.2198    0.7862    0.0809 C.3     1  UNL11       0.0159
      5 C          -2.1522    0.5695   -1.0612 C.3     1  UNL11      -0.0120
      6 C          -2.2678   -0.8592   -1.4494 C.ar    1  UNL11      -0.0432
      7 C          -1.5801   -1.8669   -0.8124 C.ar    1  UNL11      -0.0584
      8 C          -1.6593   -3.1927   -1.1392 C.ar    1  UNL11      -0.0588
      9 C          -2.4945   -3.5528   -2.1913 C.ar    1  UNL11      -0.0264
     10 C          -3.1994   -2.5738   -2.8536 C.ar    1  UNL11       0.1237
     11 F          -4.0105   -2.9229   -3.8752 F       1  UNL11      -0.2055
     12 C          -3.1019   -1.2447   -2.5046 C.ar    1  UNL11      -0.0232
     13 C           0.0622   -1.2853    1.6160 C.2     1  UNL11       0.1988
     14 N           0.4257   -2.5739    1.8664 N.2     1  UNL11       0.0021
     15 N          -0.1333   -3.2338    2.8582 N.am    1  UNL11      -0.0351
     16 C          -1.0642   -2.6688    3.6417 C.2     1  UNL11       0.4383
     17 O          -1.5813   -3.3528    4.6007 O.2     1  UNL11      -0.2116
     18 C          -1.4488   -1.3771    3.4104 C.ar    1  UNL11       0.1009
     19 C          -2.4114   -0.8101    4.1855 C.ar    1  UNL11      -0.0441
     20 C          -2.8146    0.4823    3.9274 C.ar    1  UNL11      -0.0608
     21 C          -2.2479    1.2054    2.8857 C.ar    1  UNL11      -0.0611
     22 C          -1.2777    0.6412    2.1015 C.ar    1  UNL11      -0.0513
     23 C          -0.8785   -0.6479    2.3676 C.ar    1  UNL11       0.0282
     24 H           0.5720    0.7868   -1.0940 H       1  UNL11       0.1491
     25 H          -1.2274    1.8740    0.3838 H       1  UNL11       0.0465
     26 H          -1.5292    0.1550    0.9612 H       1  UNL11       0.0465
     27 H          -3.1798    0.8605   -0.6927 H       1  UNL11       0.0328
     28 H          -1.9429    1.2109   -1.9134 H       1  UNL11       0.0328
     29 H          -0.9267   -1.6008    0.0078 H       1  UNL11       0.0620
     30 H          -1.0871   -3.9439   -0.5939 H       1  UNL11       0.0619
     31 H          -2.5589   -4.6129   -2.4538 H       1  UNL11       0.0646
     32 H          -3.6444   -0.4683   -3.0103 H       1  UNL11       0.0649
     33 H           0.1387   -4.2382    3.0669 H       1  UNL11       0.4829
     34 H          -2.8637   -1.3709    5.0070 H       1  UNL11       0.0627
     35 H          -3.5721    0.9404    4.5320 H       1  UNL11       0.0618
     36 H          -2.5579    2.2265    2.6699 H       1  UNL11       0.0618
     37 H          -0.8837    1.2090    1.2822 H       1  UNL11       0.0624
@<TRIPOS>BOND
     1     1     2    2
     2     2     3   am
     3     2    13    1
     4     3     4    1
     5     3    24    1
     6     4     5    1
     7     4    25    1
     8     4    26    1
     9     5     6    1
    10     5    27    1
    11     5    28    1
    12     6     7   ar
    13     7     8   ar
    14     7    29    1
    15     8     9   ar
    16     8    30    1
    17     9    10   ar
    18     9    31    1
    19    10    11    1
    20    10    12   ar
    21    12     6   ar
    22    12    32    1
    23    13    14    2
    24    14    15    1
    25    15    16   am
    26    15    33    1
    27    16    17    2
    28    16    18    1
    29    18    19   ar
    30    19    20   ar
    31    19    34    1
    32    20    21   ar
    33    20    35    1
    34    21    22   ar
    35    21    36    1
    36    22    23   ar
    37    22    37    1
    38    23    13    1
    39    23    18   ar
@<TRIPOS>MOLECULE
*****
 37 39 0 0 0
SMALL
GASTEIGER

@<TRIPOS>ATOM
      1 O           1.9082   -1.0799    0.2697 O.2     1  UNL11      -0.2683
      2 C           0.7301   -0.6581    0.5028 C.2     1  UNL11       0.2688
      3 N           0.1173    0.3448   -0.2502 N.am    1  UNL11      -0.3096
      4 C          -1.2198    0.7862    0.0809 C.3     1  UNL11       0.0159
      5 C          -2.1522    0.5695   -1.0612 C.3     1  UNL11      -0.0120
      6 C          -3.5358    1.0242   -0.7716 C.ar    1  UNL11      -0.0432
      7 C          -3.9043    1.5851    0.4299 C.ar    1  UNL11      -0.0584
      8 C          -5.1661    2.0160    0.7352 C.ar    1  UNL11      -0.0588
      9 C          -6.1512    1.8790   -0.2368 C.ar    1  UNL11      -0.0264
     10 C          -5.8223    1.3226   -1.4517 C.ar    1  UNL11       0.1237
     11 F          -6.7785    1.1894   -2.3959 F       1  UNL11      -0.2055
     12 C          -4.5431    0.8963   -1.7343 C.ar    1  UNL11      -0.0232
     13 C           0.0622   -1.2853    1.6160 C.2     1  UNL11       0.1988
     14 N           0.4257   -2.5739    1.8664 N.2     1  UNL11       0.0021
     15 N          -0.1333   -3.2338    2.8582 N.am    1  UNL11      -0.0351
     16 C          -1.0642   -2.6688    3.6417 C.2     1  UNL11       0.4383
     17 O          -1.5813   -3.3528    4.6007 O.2     1  UNL11      -0.2116
     18 C          -1.4488   -1.3771    3.4104 C.ar    1  UNL11       0.1009
     19 C          -2.4114   -0.8101    4.1855 C.ar    1  UNL11      -0.0441
     20 C          -2.8146    0.4823    3.9274 C.ar    1  UNL11      -0.0608
     21 C          -2.2479    1.2054    2.8857 C.ar    1  UNL11      -0.0611
     22 C          -1.2777    0.6412    2.1015 C.ar    1  UNL11      -0.0513
     23 C          -0.8785   -0.6479    2.3676 C.ar    1  UNL11       0.0282
     24 H           0.5720    0.7868   -1.0940 H       1  UNL11       0.1491
     25 H          -1.2274    1.8740    0.3838 H       1  UNL11       0.0465
     26 H          -1.5292    0.1550    0.9612 H       1  UNL11       0.0465
     27 H          -1.7902    1.2362   -1.8984 H       1  UNL11       0.0328
     28 H          -2.1263   -0.4455   -1.4494 H       1  UNL11       0.0328
     29 H          -3.1477    1.6976    1.1950 H       1  UNL11       0.0620
     30 H          -5.3937    2.4528    1.7081 H       1  UNL11       0.0619
     31 H          -7.1610    2.2232    0.0059 H       1  UNL11       0.0646
     32 H          -4.2692    0.4602   -2.6764 H       1  UNL11       0.0649
     33 H           0.1387   -4.2382    3.0669 H       1  UNL11       0.4829
     34 H          -2.8637   -1.3709    5.0070 H       1  UNL11       0.0627
     35 H          -3.5721    0.9404    4.5320 H       1  UNL11       0.0618
     36 H          -2.5579    2.2265    2.6699 H       1  UNL11       0.0618
     37 H          -0.8837    1.2090    1.2822 H       1  UNL11       0.0624
@<TRIPOS>BOND
     1     1     2    2
     2     2     3   am
     3     2    13    1
     4     3     4    1
     5     3    24    1
     6     4     5    1
     7     4    25    1
     8     4    26    1
     9     5     6    1
    10     5    27    1
    11     5    28    1
    12     6     7   ar
    13     7     8   ar
    14     7    29    1
    15     8     9   ar
    16     8    30    1
    17     9    10   ar
    18     9    31    1
    19    10    11    1
    20    10    12   ar
    21    12     6   ar
    22    12    32    1
    23    13    14    2
    24    14    15    1
    25    15    16   am
    26    15    33    1
    27    16    17    2
    28    16    18    1
    29    18    19   ar
    30    19    20   ar
    31    19    34    1
    32    20    21   ar
    33    20    35    1
    34    21    22   ar
    35    21    36    1
    36    22    23   ar
    37    22    37    1
    38    23    13    1
    39    23    18   ar
@<TRIPOS>MOLECULE
*****
 37 39 0 0 0
SMALL
GASTEIGER

@<TRIPOS>ATOM
      1 O           1.9082   -1.0799    0.2697 O.2     1  UNL11      -0.2683
      2 C           0.7301   -0.6581    0.5028 C.2     1  UNL11       0.2688
      3 N           0.1173    0.3448   -0.2502 N.am    1  UNL11      -0.3096
      4 C          -1.2198    0.7862    0.0809 C.3     1  UNL11       0.0159
      5 C          -1.1843    1.9183    1.0493 C.3     1  UNL11      -0.0120
      6 C          -0.5034    1.5688    2.3218 C.ar    1  UNL11      -0.0432
      7 C          -0.3658    2.4546    3.3660 C.ar    1  UNL11      -0.0584
      8 C           0.2534    2.1717    4.5524 C.ar    1  UNL11      -0.0588
      9 C           0.7839    0.8971    4.7195 C.ar    1  UNL11      -0.0264
     10 C           0.6666   -0.0177    3.6980 C.ar    1  UNL11       0.1237
     11 F           1.1815   -1.2555    3.8598 F       1  UNL11      -0.2055
     12 C           0.0378    0.2926    2.5122 C.ar    1  UNL11      -0.0232
     13 C           0.0622   -1.2853    1.6160 C.2     1  UNL11       0.1988
     14 N           0.7810   -2.2424    2.2663 N.2     1  UNL11       0.0021
     15 N           0.2542   -2.8768    3.2918 N.am    1  UNL11      -0.0351
     16 C          -0.9872   -2.6068    3.7228 C.2     1  UNL11       0.4383
     17 O          -1.4592   -3.2518    4.7308 O.2     1  UNL11      -0.2116
     18 C          -1.7309   -1.6521    3.0862 C.ar    1  UNL11       0.1009
     19 C          -2.9992   -1.3948    3.5035 C.ar    1  UNL11      -0.0441
     20 C          -3.7529   -0.4520    2.8381 C.ar    1  UNL11      -0.0608
     21 C          -3.2286    0.2328    1.7494 C.ar    1  UNL11      -0.0611
     22 C          -1.9521   -0.0206    1.3241 C.ar    1  UNL11      -0.0513
     23 C          -1.2053   -0.9605    1.9954 C.ar    1  UNL11       0.0282
     24 H           0.5720    0.7868   -1.0940 H       1  UNL11       0.1491
     25 H          -1.8373   -0.0610    0.5006 H       1  UNL11       0.0465
     26 H          -1.6694    1.1231   -0.8955 H       1  UNL11       0.0465
     27 H          -0.5408    2.7192    0.5791 H       1  UNL11       0.0328
     28 H          -2.1583    2.3711    1.2157 H       1  UNL11       0.0328
     29 H          -0.7739    3.4498    3.2494 H       1  UNL11       0.0620
     30 H           0.3295    2.9198    5.3421 H       1  UNL11       0.0619
     31 H           1.2795    0.6693    5.6678 H       1  UNL11       0.0646
     32 H          -0.0626   -0.4086    1.7053 H       1  UNL11       0.0649
     33 H           0.8007   -3.6249    3.8096 H       1  UNL11       0.4829
     34 H          -3.4209   -1.9287    4.3585 H       1  UNL11       0.0627
     35 H          -4.7538   -0.2399    3.1581 H       1  UNL11       0.0618
     36 H          -3.8132    0.9790    1.2140 H       1  UNL11       0.0618
     37 H          -1.5858    0.4962    0.4594 H       1  UNL11       0.0624
@<TRIPOS>BOND
     1     1     2    2
     2     2     3   am
     3     2    13    1
     4     3     4    1
     5     3    24    1
     6     4     5    1
     7     4    25    1
     8     4    26    1
     9     5     6    1
    10     5    27    1
    11     5    28    1
    12     6     7   ar
    13     7     8   ar
    14     7    29    1
    15     8     9   ar
    16     8    30    1
    17     9    10   ar
    18     9    31    1
    19    10    11    1
    20    10    12   ar
    21    12     6   ar
    22    12    32    1
    23    13    14    2
    24    14    15    1
    25    15    16   am
    26    15    33    1
    27    16    17    2
    28    16    18    1
    29    18    19   ar
    30    19    20   ar
    31    19    34    1
    32    20    21   ar
    33    20    35    1
    34    21    22   ar
    35    21    36    1
    36    22    23   ar
    37    22    37    1
    38    23    13    1
    39    23    18   ar
@<TRIPOS>MOLECULE
*****
 37 39 0 0 0
SMALL
GASTEIGER

@<TRIPOS>ATOM
      1 O           0.1668   -1.2252    1.4933 O.2     1  UNL11      -0.2683
      2 C           0.7301   -0.6581    0.5028 C.2     1  UNL11       0.2688
      3 N           0.1173    0.3448   -0.2502 N.am    1  UNL11      -0.3096
      4 C          -1.2198    0.7862    0.0809 C.3     1  UNL11       0.0159
      5 C          -1.7533    0.0400    1.2553 C.3     1  UNL11      -0.0120
      6 C          -1.8121   -1.4265    1.0297 C.ar    1  UNL11      -0.0432
      7 C          -2.9150   -2.0603    0.5042 C.ar    1  UNL11      -0.0584
      8 C          -3.0084   -3.4066    0.2813 C.ar    1  UNL11      -0.0588
      9 C          -1.9111   -4.1960    0.6082 C.ar    1  UNL11      -0.0264
     10 C          -0.7890   -3.5994    1.1362 C.ar    1  UNL11       0.1237
     11 F           0.2768   -4.3655    1.4537 F       1  UNL11      -0.2055
     12 C          -0.7203   -2.2404    1.3510 C.ar    1  UNL11      -0.0232
     13 C           2.0577   -1.1306    0.1981 C.2     1  UNL11       0.1988
     14 N           2.7722   -1.5948    1.2608 N.2     1  UNL11       0.0021
     15 N           3.9974   -2.0415    1.0846 N.am    1  UNL11      -0.0351
     16 C           4.5734   -2.0537   -0.1269 C.2     1  UNL11       0.4383
     17 O           5.7729   -2.5017   -0.2507 O.2     1  UNL11      -0.2116
     18 C           3.8787   -1.5910   -1.2102 C.ar    1  UNL11       0.1009
     19 C           4.4691   -1.5768   -2.4350 C.ar    1  UNL11      -0.0441
     20 C           3.7729   -1.0816   -3.5165 C.ar    1  UNL11      -0.0608
     21 C           2.4796   -0.5987   -3.3644 C.ar    1  UNL11      -0.0611
     22 C           1.8786   -0.6105   -2.1342 C.ar    1  UNL11      -0.0513
     23 C           2.5787   -1.1093   -1.0605 C.ar    1  UNL11       0.0282
     24 H           0.5720    0.7868   -1.0940 H       1  UNL11       0.1491
     25 H          -1.9178    0.6701   -0.7992 H       1  UNL11       0.0465
     26 H          -1.1163    1.8802    0.3291 H       1  UNL11       0.0465
     27 H          -1.0045    0.1818    2.0894 H       1  UNL11       0.0328
     28 H          -2.6958    0.4369    1.6236 H       1  UNL11       0.0328
     29 H          -3.7757   -1.4581    0.2455 H       1  UNL11       0.0620
     30 H          -3.9127   -3.8480   -0.1388 H       1  UNL11       0.0619
     31 H          -1.9843   -5.2730    0.4305 H       1  UNL11       0.0646
     32 H           0.1469   -1.7586    1.7619 H       1  UNL11       0.0649
     33 H           4.5676   -2.4069    1.9018 H       1  UNL11       0.4829
     34 H           5.4864   -1.9539   -2.5649 H       1  UNL11       0.0627
     35 H           4.2274   -1.0658   -4.4873 H       1  UNL11       0.0618
     36 H           1.9188   -0.2036   -4.2097 H       1  UNL11       0.0618
     37 H           0.8937   -0.1985   -2.0388 H       1  UNL11       0.0624
@<TRIPOS>BOND
     1     1     2    2
     2     2     3   am
     3     2    13    1
     4     3     4    1
     5     3    24    1
     6     4     5    1
     7     4    25    1
     8     4    26    1
     9     5     6    1
    10     5    27    1
    11     5    28    1
    12     6     7   ar
    13     7     8   ar
    14     7    29    1
    15     8     9   ar
    16     8    30    1
    17     9    10   ar
    18     9    31    1
    19    10    11    1
    20    10    12   ar
    21    12     6   ar
    22    12    32    1
    23    13    14    2
    24    14    15    1
    25    15    16   am
    26    15    33    1
    27    16    17    2
    28    16    18    1
    29    18    19   ar
    30    19    20   ar
    31    19    34    1
    32    20    21   ar
    33    20    35    1
    34    21    22   ar
    35    21    36    1
    36    22    23   ar
    37    22    37    1
    38    23    13    1
    39    23    18   ar
@<TRIPOS>MOLECULE
*****
 37 39 0 0 0
SMALL
GASTEIGER

@<TRIPOS>ATOM
      1 O           1.9082   -1.0799    0.2697 O.2     1  UNL11      -0.2683
      2 C           0.7301   -0.6581    0.5028 C.2     1  UNL11       0.2688
      3 N           0.1173    0.3448   -0.2502 N.am    1  UNL11      -0.3096
      4 C          -1.2198    0.7862    0.0809 C.3     1  UNL11       0.0159
      5 C          -2.1522    0.5695   -1.0612 C.3     1  UNL11      -0.0120
      6 C          -2.2678   -0.8592   -1.4494 C.ar    1  UNL11      -0.0432
      7 C          -1.4545   -1.4482   -2.3905 C.ar    1  UNL11      -0.0584
      8 C          -1.5288   -2.7588   -2.7750 C.ar    1  UNL11      -0.0588
      9 C          -2.4955   -3.5575   -2.1737 C.ar    1  UNL11      -0.0264
     10 C          -3.3283   -3.0052   -1.2275 C.ar    1  UNL11       0.1237
     11 F          -4.2671   -3.7804   -0.6432 F       1  UNL11      -0.2055
     12 C          -3.2327   -1.6817   -0.8576 C.ar    1  UNL11      -0.0232
     13 C           0.0622   -1.2853    1.6160 C.2     1  UNL11       0.1988
     14 N          -0.8327   -0.5013    2.2791 N.2     1  UNL11       0.0021
     15 N          -1.4881   -0.9824    3.3139 N.am    1  UNL11      -0.0351
     16 C          -1.2990   -2.2394    3.7428 C.2     1  UNL11       0.4383
     17 O          -1.9641   -2.6664    4.7578 O.2     1  UNL11      -0.2116
     18 C          -0.4045   -3.0467    3.0962 C.ar    1  UNL11       0.1009
     19 C          -0.1906   -4.3124    3.5447 C.ar    1  UNL11      -0.0441
     20 C           0.7342   -5.1100    2.9057 C.ar    1  UNL11      -0.0608
     21 C           1.4459   -4.6318    1.8131 C.ar    1  UNL11      -0.0611
     22 C           1.2353   -3.3586    1.3556 C.ar    1  UNL11      -0.0513
     23 C           0.3084   -2.5701    1.9967 C.ar    1  UNL11       0.0282
     24 H           0.5720    0.7868   -1.0940 H       1  UNL11       0.1491
     25 H          -1.2274    1.8740    0.3838 H       1  UNL11       0.0465
     26 H          -1.5292    0.1550    0.9612 H       1  UNL11       0.0465
     27 H          -3.1798    0.8605   -0.6927 H       1  UNL11       0.0328
     28 H          -1.9429    1.2109   -1.9134 H       1  UNL11       0.0328
     29 H          -0.6981   -0.8383   -2.8663 H       1  UNL11       0.0620
     30 H          -0.8533   -3.1654   -3.5283 H       1  UNL11       0.0619
     31 H          -2.5562   -4.6059   -2.4802 H       1  UNL11       0.0646
     32 H          -3.8740   -1.2347   -0.1216 H       1  UNL11       0.0649
     33 H          -2.1890   -0.3850    3.8414 H       1  UNL11       0.4829
     34 H          -0.7451   -4.6976    4.4038 H       1  UNL11       0.0627
     35 H           0.9110   -6.1099    3.2495 H       1  UNL11       0.0618
     36 H           2.1801   -5.2505    1.2999 H       1  UNL11       0.0618
     37 H           1.8242   -3.0032    0.5336 H       1  UNL11       0.0624
@<TRIPOS>BOND
     1     1     2    2
     2     2     3   am
     3     2    13    1
     4     3     4    1
     5     3    24    1
     6     4     5    1
     7     4    25    1
     8     4    26    1
     9     5     6    1
    10     5    27    1
    11     5    28    1
    12     6     7   ar
    13     7     8   ar
    14     7    29    1
    15     8     9   ar
    16     8    30    1
    17     9    10   ar
    18     9    31    1
    19    10    11    1
    20    10    12   ar
    21    12     6   ar
    22    12    32    1
    23    13    14    2
    24    14    15    1
    25    15    16   am
    26    15    33    1
    27    16    17    2
    28    16    18    1
    29    18    19   ar
    30    19    20   ar
    31    19    34    1
    32    20    21   ar
    33    20    35    1
    34    21    22   ar
    35    21    36    1
    36    22    23   ar
    37    22    37    1
    38    23    13    1
    39    23    18   ar
